Version 4
SHEET 1 1192 680
WIRE 128 -80 16 -80
WIRE 976 -48 928 -48
WIRE 128 -16 128 -80
WIRE 928 -16 928 -48
WIRE 528 0 528 -64
WIRE 544 0 528 0
WIRE 448 80 448 -64
WIRE 624 80 624 0
WIRE 624 80 528 80
WIRE 720 80 624 80
WIRE 832 80 800 80
WIRE 928 80 928 64
WIRE 128 96 128 64
WIRE 288 96 128 96
WIRE 128 112 128 96
WIRE 368 144 368 -64
WIRE 624 144 624 80
WIRE 624 144 448 144
WIRE 976 144 928 144
WIRE 720 160 720 144
WIRE 624 176 624 144
WIRE 688 176 624 176
WIRE 928 176 928 144
WIRE 832 192 832 80
WIRE 832 192 752 192
WIRE 864 192 832 192
WIRE 880 192 864 192
WIRE 128 208 128 192
WIRE 176 208 128 208
WIRE 304 208 256 208
WIRE 320 208 304 208
WIRE 688 208 624 208
WIRE 624 240 624 208
WIRE 624 240 448 240
WIRE 720 240 720 224
WIRE 128 256 128 208
WIRE 928 272 928 256
WIRE 256 288 208 288
WIRE 288 288 256 288
WIRE 624 304 624 240
WIRE 624 304 528 304
WIRE 672 304 624 304
WIRE 720 304 672 304
WIRE 832 304 800 304
WIRE 880 304 832 304
WIRE 976 336 928 336
WIRE 928 368 928 336
WIRE 16 384 16 -80
WIRE 128 384 128 336
WIRE 128 384 16 384
WIRE 544 384 528 384
WIRE 624 384 624 304
WIRE 672 384 672 304
WIRE 720 384 672 384
WIRE 832 384 800 384
WIRE 880 384 832 384
WIRE 16 416 16 384
WIRE 256 448 208 448
WIRE 288 448 256 448
WIRE 368 448 368 240
WIRE 448 448 448 304
WIRE 528 448 528 384
WIRE 928 464 928 448
FLAG 720 144 V+
FLAG 720 240 V-
FLAG 528 -64 -INC
FLAG 448 -64 -INB
FLAG 368 -64 -INA
FLAG 528 448 +INC
FLAG 448 448 +INB
FLAG 368 448 +INA
FLAG 928 80 0
FLAG 928 272 0
FLAG 976 -48 V+
FLAG 976 144 V-
FLAG 16 416 0
FLAG 288 96 VM
FLAG 864 192 OUT
FLAG 832 304 REF1
FLAG 832 384 REF2
FLAG 928 464 0
FLAG 976 336 REF
FLAG 304 208 VP
FLAG 256 288 VP
FLAG 256 448 VM
SYMBOL Opamps\\LT6015 720 192 R0
SYMATTR InstName U1
SYMBOL res 464 224 R90
WINDOW 0 0 56 VBottom 2
WINDOW 3 32 56 VTop 2
SYMATTR InstName R5
SYMATTR Value 22.5K
SYMBOL res 544 288 R90
WINDOW 0 0 56 VBottom 2
WINDOW 3 32 56 VTop 2
SYMATTR InstName R6
SYMATTR Value 7.5K
SYMBOL res 464 128 R90
WINDOW 0 0 56 VBottom 2
WINDOW 3 32 56 VTop 2
SYMATTR InstName R7
SYMATTR Value 22.5K
SYMBOL res 544 64 R90
WINDOW 0 0 56 VBottom 2
WINDOW 3 32 56 VTop 2
SYMATTR InstName R8
SYMATTR Value 7.5K
SYMBOL res 640 -16 R90
WINDOW 0 0 56 VBottom 2
WINDOW 3 32 56 VTop 2
SYMATTR InstName R9
SYMATTR Value 2.5K
SYMBOL res 640 368 R90
WINDOW 0 0 56 VBottom 2
WINDOW 3 32 56 VTop 2
SYMATTR InstName R10
SYMATTR Value 2.5K
SYMBOL res 816 64 R90
WINDOW 0 0 56 VBottom 2
WINDOW 3 32 56 VTop 2
SYMATTR InstName R11
SYMATTR Value 22.5K
SYMBOL res 816 288 R90
WINDOW 0 0 56 VBottom 2
WINDOW 3 32 56 VTop 2
SYMATTR InstName R3
SYMATTR Value 45K
SYMBOL res 816 368 R90
WINDOW 0 0 56 VBottom 2
WINDOW 3 32 56 VTop 2
SYMATTR InstName R4
SYMATTR Value 45K
SYMBOL voltage 928 -32 R0
WINDOW 123 0 0 Left 2
WINDOW 39 0 0 Left 2
SYMATTR InstName V1
SYMATTR Value 15
SYMBOL voltage 928 160 R0
WINDOW 123 0 0 Left 2
WINDOW 39 0 0 Left 2
SYMATTR InstName V2
SYMATTR Value -15
SYMBOL current 128 64 R180
WINDOW 123 0 0 Left 2
WINDOW 39 0 0 Left 2
WINDOW 0 -101 90 Left 2
WINDOW 3 24 80 Invisible 2
SYMATTR InstName ISRC
SYMATTR Value PWL()
SYMBOL res 144 208 R180
WINDOW 0 -101 74 Left 2
WINDOW 3 -22 43 Left 2
SYMATTR InstName RSENSE
SYMATTR Value 1
SYMBOL voltage 128 240 R0
WINDOW 0 -91 6 Left 2
WINDOW 123 0 0 Left 2
WINDOW 39 0 0 Left 2
SYMATTR InstName VCM
SYMATTR Value 0
SYMBOL voltage 928 352 R0
WINDOW 123 0 0 Left 2
WINDOW 39 0 0 Left 2
SYMATTR InstName V3
SYMATTR Value 0
SYMBOL res 160 224 R270
WINDOW 0 32 56 VTop 2
WINDOW 3 0 56 VBottom 2
SYMATTR InstName Rs
SYMATTR Value 1
TEXT 576 472 Left 2 !.tran 5
TEXT 256 320 Center 2 ;+\nVdiff\n-
