Version 4
SHEET 1 1660 1552
WIRE -992 304 -1024 304
WIRE -1024 320 -1024 304
WIRE -544 336 -640 336
WIRE 96 336 -464 336
WIRE -1072 368 -1072 336
WIRE -992 368 -992 304
WIRE -640 368 -640 336
WIRE -176 400 -208 400
WIRE 96 400 96 336
WIRE 96 400 -96 400
WIRE 144 400 96 400
WIRE 256 400 224 400
WIRE -1072 464 -1072 448
WIRE -992 464 -992 448
WIRE 176 528 176 512
WIRE -640 544 -640 448
WIRE 96 544 96 400
WIRE 144 544 96 544
WIRE 256 560 256 400
WIRE 256 560 208 560
WIRE 592 560 256 560
WIRE 1216 560 592 560
WIRE 1264 560 1216 560
WIRE -208 576 -208 400
WIRE -176 576 -208 576
WIRE -64 576 -112 576
WIRE 144 576 96 576
WIRE 176 608 176 592
WIRE 592 624 592 560
WIRE 672 624 592 624
WIRE -208 672 -208 576
WIRE -208 672 -272 672
WIRE -176 672 -208 672
WIRE -64 672 -64 576
WIRE -64 672 -96 672
WIRE 32 672 -64 672
WIRE 96 672 96 576
WIRE 96 672 32 672
WIRE 304 672 96 672
WIRE 480 672 384 672
WIRE 592 672 592 624
WIRE 592 672 544 672
WIRE -272 704 -272 672
WIRE -1088 736 -1088 704
WIRE 1056 768 976 768
WIRE 1360 768 1136 768
WIRE 672 816 672 624
WIRE 912 816 672 816
WIRE 1360 816 1360 768
WIRE 1360 816 1296 816
WIRE 1408 816 1360 816
WIRE 1440 816 1408 816
WIRE 1568 816 1520 816
WIRE -1088 832 -1088 816
WIRE 912 864 912 816
WIRE 976 864 976 768
WIRE 1040 864 1040 832
WIRE 1104 864 1104 848
WIRE 1168 864 1168 832
WIRE 1232 864 1232 832
WIRE 1296 864 1296 816
WIRE -672 960 -800 960
WIRE -432 960 -672 960
WIRE -240 960 -432 960
WIRE 144 960 -160 960
WIRE -240 1104 -288 1104
WIRE 16 1104 -160 1104
WIRE 240 1136 176 1136
WIRE 336 1136 304 1136
WIRE 1040 1168 1040 1152
WIRE 1104 1168 1104 1152
WIRE 1232 1168 1232 1152
WIRE 1296 1168 1296 1152
WIRE 912 1184 912 1152
WIRE 1168 1184 1168 1152
WIRE -288 1200 -288 1104
WIRE -224 1200 -288 1200
WIRE -144 1200 -160 1200
WIRE -80 1200 -144 1200
WIRE 16 1200 16 1104
WIRE 16 1200 -16 1200
WIRE 176 1232 176 1136
WIRE 224 1232 176 1232
WIRE 336 1232 336 1136
WIRE 336 1232 304 1232
WIRE 672 1232 672 816
WIRE 768 1232 672 1232
WIRE 976 1232 976 1152
WIRE 976 1232 848 1232
WIRE 976 1280 976 1232
WIRE 1072 1280 976 1280
WIRE 1408 1280 1408 816
WIRE 1408 1280 1152 1280
WIRE -224 1344 -224 1328
WIRE -432 1360 -432 960
WIRE -400 1360 -432 1360
WIRE -288 1360 -288 1200
WIRE -288 1360 -320 1360
WIRE -256 1360 -288 1360
WIRE 256 1360 256 1344
WIRE -144 1376 -144 1200
WIRE -144 1376 -192 1376
WIRE 16 1376 16 1200
WIRE 48 1376 16 1376
WIRE 144 1376 144 960
WIRE 144 1376 128 1376
WIRE 176 1376 176 1232
WIRE 176 1376 144 1376
WIRE 224 1376 176 1376
WIRE -256 1392 -304 1392
WIRE 336 1392 336 1232
WIRE 336 1392 288 1392
WIRE 512 1392 336 1392
WIRE 608 1392 592 1392
WIRE 736 1392 608 1392
WIRE 832 1392 736 1392
WIRE 224 1408 176 1408
WIRE 608 1408 608 1392
WIRE -224 1424 -224 1408
WIRE 256 1440 256 1424
WIRE 176 1472 176 1408
WIRE 608 1504 608 1472
WIRE -304 1520 -304 1392
FLAG -1072 464 0
FLAG -1072 336 Vpos
FLAG -1024 320 0
FLAG -992 464 Vneg
FLAG 176 512 Vpos
FLAG 176 608 Vneg
FLAG -272 704 0
FLAG -640 544 0
FLAG -304 1520 0
FLAG 176 1472 0
FLAG 608 1504 0
FLAG -224 1328 Vpos
FLAG -224 1424 Vneg
FLAG 256 1344 Vpos
FLAG 256 1440 Vneg
FLAG 1216 560 Vout
FLAG -672 960 Vout
FLAG 736 1392 Vcontrol
FLAG 1296 1168 Vneg
FLAG 1232 832 Vpos
FLAG 912 1184 0
FLAG -1088 832 0
FLAG -1088 704 Vfs
FLAG 1168 1184 0
FLAG 1168 832 0
FLAG 1040 832 Vfs
FLAG 1040 1168 Vcontrol
FLAG 1568 816 tweak
FLAG 32 672 tweak
SYMBOL voltage -1072 352 R0
WINDOW 123 0 0 Left 2
WINDOW 39 0 0 Left 2
SYMATTR InstName V1
SYMATTR Value 15
SYMBOL voltage -992 352 R0
WINDOW 123 0 0 Left 2
WINDOW 39 0 0 Left 2
SYMATTR InstName V2
SYMATTR Value 15
SYMBOL res 128 416 R270
WINDOW 0 32 56 VTop 2
WINDOW 3 0 56 VBottom 2
SYMATTR InstName R4
SYMATTR Value 4K
SYMBOL cap 544 656 R90
WINDOW 0 0 32 VBottom 2
WINDOW 3 32 32 VTop 2
SYMATTR InstName C1
SYMATTR Value 470p
SYMATTR SpiceLine V=10 Irms=10.541 Rser=0.004 Lser=0
SYMBOL res -192 688 R270
WINDOW 0 32 56 VTop 2
WINDOW 3 0 56 VBottom 2
SYMATTR InstName R1
SYMATTR Value 1K
SYMBOL res 288 688 R270
WINDOW 0 32 56 VTop 2
WINDOW 3 0 56 VBottom 2
SYMATTR InstName R2
SYMATTR Value 1K
SYMBOL cap -112 560 R90
WINDOW 0 0 32 VBottom 2
WINDOW 3 32 32 VTop 2
SYMATTR InstName C2
SYMATTR Value 470p
SYMATTR SpiceLine V=10 Irms=10.541 Rser=0.004 Lser=0
SYMBOL res -192 416 R270
WINDOW 0 32 56 VTop 2
WINDOW 3 0 56 VBottom 2
SYMATTR InstName R3
SYMATTR Value 2K
SYMBOL voltage -640 352 R0
WINDOW 123 0 0 Left 2
WINDOW 39 0 0 Left 2
SYMATTR InstName V3
SYMATTR Value PULSE(0 5 1u 1n 1n 5u 1)
SYMBOL res -560 352 R270
WINDOW 0 32 56 VTop 2
WINDOW 3 0 56 VBottom 2
SYMATTR InstName R5
SYMATTR Value 1Meg
SYMBOL Opamps\\UniversalOpamp2 176 560 R0
WINDOW 123 324 -93 Left 2
WINDOW 40 325 -131 Left 2
SYMATTR Value2 Avol=1000000 GBW=50Meg Slew=1000Meg
SYMATTR SpiceLine2 en=1.2n enk=10 in=3.75p ink=30 Rin=500Meg
SYMATTR InstName U2
SYMBOL res -256 1120 R270
WINDOW 0 32 56 VTop 2
WINDOW 3 0 56 VBottom 2
SYMATTR InstName R6
SYMATTR Value 2.49k
SYMBOL res -416 1376 R270
WINDOW 0 32 56 VTop 2
WINDOW 3 0 56 VBottom 2
SYMATTR InstName R7
SYMATTR Value 4.99k
SYMBOL res 144 1360 R90
WINDOW 0 0 56 VBottom 2
WINDOW 3 32 56 VTop 2
SYMATTR InstName R8
SYMATTR Value 2.49k
SYMBOL res 208 1248 R270
WINDOW 0 32 56 VTop 2
WINDOW 3 0 56 VBottom 2
SYMATTR InstName R9
SYMATTR Value 10k
SYMBOL res -256 976 R270
WINDOW 0 32 56 VTop 2
WINDOW 3 0 56 VBottom 2
SYMATTR InstName R10
SYMATTR Value 10k
SYMBOL cap 304 1120 R90
WINDOW 0 0 32 VBottom 2
WINDOW 3 32 32 VTop 2
SYMATTR InstName C3
SYMATTR Value 1pF
SYMATTR SpiceLine V=10 Irms=10.541 Rser=0.004 Lser=0 mfg="KEMET" pn="C0603C105K8PAC" type="X5R"
SYMBOL cap 592 1408 R0
SYMATTR InstName C4
SYMATTR Value .2u
SYMATTR SpiceLine V=10 Irms=0 Rser=0.002 Lser=0
SYMBOL res 496 1408 R270
WINDOW 0 32 56 VTop 2
WINDOW 3 0 56 VBottom 2
SYMATTR InstName R11
SYMATTR Value 10K
SYMATTR SpiceLine tol=1 pwr=0.1
SYMBOL Opamps\\LT1363 -224 1312 R0
SYMATTR InstName U1
SYMBOL Opamps\\LT1363 256 1328 R0
SYMATTR InstName U3
SYMBOL schottky -160 1184 R90
WINDOW 0 0 32 VBottom 2
WINDOW 3 32 32 VTop 2
SYMATTR InstName D1
SYMATTR Value MMBD101
SYMATTR Description Diode
SYMATTR Type diode
SYMBOL schottky -16 1184 R90
WINDOW 0 0 32 VBottom 2
WINDOW 3 32 32 VTop 2
SYMATTR InstName D2
SYMATTR Value MMBD101
SYMATTR Description Diode
SYMATTR Type diode
SYMBOL Opamps\\LT1251 1008 1008 R270
SYMATTR InstName U4
SYMBOL res 1536 800 R90
WINDOW 0 0 56 VBottom 2
WINDOW 3 32 56 VTop 2
SYMATTR InstName R12
SYMATTR Value 300k
SYMBOL res 752 1248 R270
WINDOW 0 32 56 VTop 2
WINDOW 3 0 56 VBottom 2
SYMATTR InstName R13
SYMATTR Value 2k
SYMATTR SpiceLine tol=1 pwr=0.1
SYMBOL res 1056 1296 R270
WINDOW 0 32 56 VTop 2
WINDOW 3 0 56 VBottom 2
SYMATTR InstName R14
SYMATTR Value 2k
SYMATTR SpiceLine tol=1 pwr=0.1
SYMBOL res 1040 784 R270
WINDOW 0 32 56 VTop 2
WINDOW 3 0 56 VBottom 2
SYMATTR InstName R15
SYMATTR Value 2k
SYMATTR SpiceLine tol=1 pwr=0.1
SYMBOL voltage -1088 720 R0
WINDOW 123 0 0 Left 2
WINDOW 39 0 0 Left 2
SYMATTR InstName V4
SYMATTR Value 5
TEXT -1072 616 Left 2 !.tran 10m
TEXT -424 112 Left 2 ;Note, GBW affects how high in frequency this circuit works.\n \nNote, the pulse is added for simulation, to get the oscillation moving.
TEXT 576 232 Left 2 !.model MMBD101 D(IS=1e-07   RS=0.51244   N=1.71158   EG=0.63401\n+XTI=4 BV=7 IBV=0.04e-6   CJO=9.20838e-13\n+VJ=1.5 M=0.2 FC=0.5 TT=0\n+KF=0 AF=1)
TEXT 968 1432 Left 2 !.ic V(Vcontrol)=2.5
