Version 4
SHEET 1 896 680
WIRE -464 -432 -464 -448
WIRE -464 -432 -528 -432
WIRE -528 -384 -528 -432
WIRE -208 -368 -208 -384
WIRE -336 -320 -480 -320
WIRE -208 -272 -208 -288
WIRE -1344 -144 -1392 -144
WIRE -1232 -144 -1264 -144
WIRE -336 -144 -336 -320
WIRE -336 -144 -816 -144
WIRE -208 -144 -336 -144
WIRE 64 -144 64 -272
WIRE 64 -144 48 -144
WIRE 128 -144 128 -256
WIRE 144 -144 128 -144
WIRE -1632 -128 -1712 -128
WIRE -1552 -128 -1632 -128
WIRE -1472 -128 -1552 -128
WIRE -1392 -128 -1392 -144
WIRE -1392 -128 -1472 -128
WIRE -1232 -112 -1232 -144
WIRE -816 -112 -816 -144
WIRE -816 -112 -1232 -112
WIRE -1232 -96 -1232 -112
WIRE -528 -96 -528 -288
WIRE -528 -96 -576 -96
WIRE -272 -80 -352 -80
WIRE -208 -80 -272 -80
WIRE 80 -80 48 -80
WIRE -1712 -64 -1712 -128
WIRE -1632 -64 -1632 -128
WIRE -1552 -64 -1552 -128
WIRE -1472 -64 -1472 -128
WIRE -1392 -64 -1392 -128
WIRE -528 -64 -528 -96
WIRE -352 -64 -352 -80
WIRE -208 -16 -224 -16
WIRE 80 -16 48 -16
WIRE -1232 0 -1232 -32
WIRE -816 0 -1232 0
WIRE -688 0 -816 0
WIRE -576 0 -576 -96
WIRE -576 0 -624 0
WIRE -272 0 -272 -16
WIRE -352 16 -352 0
WIRE -816 32 -816 0
WIRE -528 32 -528 16
WIRE -208 48 -240 48
WIRE 80 48 48 48
WIRE -1712 64 -1712 16
WIRE -1632 64 -1632 16
WIRE -1632 64 -1712 64
WIRE -1552 64 -1552 16
WIRE -1552 64 -1632 64
WIRE -1472 64 -1472 16
WIRE -1472 64 -1552 64
WIRE -1392 64 -1392 16
WIRE -1392 64 -1472 64
WIRE -1392 80 -1392 64
WIRE -1232 80 -1232 0
WIRE -1232 80 -1392 80
WIRE -816 128 -816 112
FLAG -208 -272 0
FLAG -208 -384 +V
FLAG -240 48 0
FLAG 80 -16 +V
FLAG 144 -144 0
FLAG 80 -80 0
FLAG -816 128 0
FLAG -464 -448 +V
FLAG -528 32 0
FLAG -352 16 0
FLAG -272 0 0
SYMBOL voltage -208 -384 R0
SYMATTR InstName V1
SYMATTR Value 5
SYMBOL opamps\\LT1328 -80 -48 R0
SYMATTR InstName U1
SYMBOL cap -288 -80 R0
WINDOW 0 27 13 Left 2
WINDOW 3 29 51 Left 2
SYMATTR InstName C1
SYMATTR Value 10n
SYMATTR SpiceLine Rser=.1
SYMBOL cap -368 -64 R0
WINDOW 0 27 13 Left 2
WINDOW 3 29 51 Left 2
SYMATTR InstName C4
SYMATTR Value 330p
SYMATTR SpiceLine Rser=.1
SYMBOL cap 128 -160 R90
WINDOW 0 0 32 VBottom 2
WINDOW 3 32 32 VTop 2
SYMATTR InstName C6
SYMATTR Value 330p
SYMBOL res -832 16 R0
SYMATTR InstName R91
SYMATTR Value 976
SYMBOL njf -480 -384 M0
SYMATTR InstName J91
SYMATTR Value 2SK932_22
SYMBOL cap -624 -16 R90
WINDOW 0 0 32 VBottom 2
WINDOW 3 32 32 VTop 2
SYMATTR InstName C96
SYMATTR Value 1µ
SYMBOL res -544 -80 R0
SYMATTR InstName R94
SYMATTR Value 976
SYMBOL cap -1248 -96 R0
SYMATTR InstName C99
SYMATTR Value 40p
SYMBOL current -1392 -64 R0
WINDOW 123 0 0 Left 2
WINDOW 39 0 0 Left 2
SYMATTR InstName I2
SYMATTR Value 1µ
SYMBOL current -1712 -64 R0
WINDOW 3 4 -472 VRight 2
WINDOW 123 0 0 Left 2
WINDOW 39 0 0 Left 2
SYMATTR Value PULSE(0 {Ipk} 374n 1n 1n 125n 2u)
SYMATTR InstName I3
SYMBOL current -1632 -64 R0
WINDOW 3 1 -479 VRight 2
WINDOW 123 0 0 Left 2
WINDOW 39 0 0 Left 2
SYMATTR Value PULSE(0 {Ipk} 500n 1n 1n 125n 2u)
SYMATTR InstName I4
SYMBOL current -1552 -64 R0
WINDOW 3 4 -496 VRight 2
WINDOW 123 0 0 Left 2
WINDOW 39 0 0 Left 2
SYMATTR Value PULSE(0 {Ipk} 1.249u 1n 1n 125n 2u)
SYMATTR InstName I5
SYMBOL current -1472 -64 R0
WINDOW 3 4 -496 VRight 2
WINDOW 123 0 0 Left 2
WINDOW 39 0 0 Left 2
SYMATTR Value PULSE(0 {Ipk} 1.499u 1n 1n 125n 2u)
SYMATTR InstName I6
SYMBOL res -1248 -160 R90
WINDOW 0 0 56 VBottom 2
WINDOW 3 32 56 VTop 2
SYMATTR InstName R999
SYMATTR Value .001
TEXT 80 88 Left 2 !.tran 0 2u 0 1n
TEXT -1408 -400 Left 2 !.param Ipk=10u
TEXT -1176 -56 Left 2 ;PD
TEXT -1168 -520 Left 2 !.model 2SK932_22 NJF(Beta=66m Rd=10 Rs=10 Lambda=20m Vto=-.48 Is=10f Cgd=5.5p M=.36 PB=1.5 Fc=.5 Cgs=10p)
TEXT 24 -296 Left 2 ;Socket and wire
TEXT -1376 -232 Left 2 ;This resistor just for sensing\ncurrent in LTspice.
