Version 4
SHEET 1 1460 680
WIRE 576 -272 528 -272
WIRE 720 -272 640 -272
WIRE 528 -176 528 -272
WIRE 528 -176 16 -176
WIRE 608 -176 528 -176
WIRE 720 -176 720 -272
WIRE 720 -176 688 -176
WIRE 768 -176 720 -176
WIRE -272 -128 -272 -144
WIRE -176 -128 -176 -144
WIRE -272 -32 -272 -48
WIRE -176 -32 -176 -48
WIRE 192 -32 112 -32
WIRE 288 -32 272 -32
WIRE 208 16 176 16
WIRE 272 16 256 16
WIRE 368 32 368 -16
WIRE -320 80 -608 80
WIRE 16 80 16 -176
WIRE 16 80 -320 80
WIRE 176 80 176 16
WIRE 176 80 16 80
WIRE 192 80 176 80
WIRE 272 80 272 16
WIRE 336 80 272 80
WIRE 768 112 768 -176
WIRE 768 112 480 112
WIRE 816 112 768 112
WIRE 832 112 816 112
WIRE -320 128 -320 80
WIRE 336 144 32 144
WIRE 32 176 32 144
WIRE 416 208 416 192
WIRE -608 224 -608 80
WIRE 368 288 368 192
WIRE -608 400 -608 304
WIRE -320 400 -320 208
WIRE -320 400 -608 400
WIRE -320 480 -320 400
WIRE 32 480 32 256
FLAG -176 -32 0
FLAG 368 -16 +V
FLAG -176 -144 -V
FLAG -320 480 0
FLAG 816 112 vout
FLAG -272 -32 0
FLAG -272 -144 +V
FLAG 368 288 -V
FLAG 32 480 0
FLAG 112 -32 V_Inoise
FLAG 288 -32 0
SYMBOL voltage -176 -144 R0
WINDOW 123 0 0 Left 2
WINDOW 39 0 0 Left 2
SYMATTR InstName V1
SYMATTR Value -2.5
SYMBOL res 704 -192 R90
WINDOW 0 0 56 VBottom 2
WINDOW 3 32 56 VTop 2
SYMATTR InstName R1
SYMATTR Value 1K noiseless
SYMBOL cap 576 -256 R270
WINDOW 0 32 32 VTop 2
WINDOW 3 0 32 VBottom 2
SYMATTR InstName C3
SYMATTR Value {Cf}
SYMBOL res 48 272 R180
WINDOW 0 36 76 Left 2
WINDOW 3 36 40 Left 2
SYMATTR InstName R3
SYMATTR Value 10 noiseless
SYMBOL voltage -272 -144 R0
WINDOW 123 0 0 Left 2
WINDOW 39 0 0 Left 2
SYMATTR InstName V2
SYMATTR Value 2.5
SYMBOL res 288 64 R90
WINDOW 0 0 56 VBottom 2
WINDOW 3 32 56 VTop 2
SYMATTR InstName R4
SYMATTR Value 1 Noiseless
SYMBOL e 176 -32 R270
SYMATTR InstName E1
SYMATTR Value 1
SYMBOL opamps\\LTC6268-10 368 112 R0
SYMATTR InstName U1
SYMBOL current -320 128 R0
WINDOW 123 24 108 Left 2
WINDOW 39 0 0 Left 2
WINDOW 3 -179 151 Left 2
SYMATTR Value2 AC 0
SYMATTR Value PULSE(0uA 550uA 50ns 1ns 1ns 50ns 100n)
SYMATTR InstName I1
SYMBOL res -592 320 R180
WINDOW 0 36 76 Left 2
WINDOW 3 36 40 Left 2
SYMATTR InstName R2
SYMATTR Value 10 noiseless
TEXT 672 240 Left 2 !;ac dec 200 100k 3000Meg
TEXT 672 200 Left 2 !;tran 2u
TEXT 672 280 Left 2 !.noise v(V_Inoise) I1 oct 100 10k 300Meg
TEXT 760 -128 Left 2 !;.step param Cf list .5p  1.0p 2.2p 4.7p
TEXT 768 -208 Left 2 !.param Cf=.1p
