Version 4
SHEET 1 1460 680
WIRE 576 -272 528 -272
WIRE 720 -272 640 -272
WIRE 528 -176 528 -272
WIRE 528 -176 16 -176
WIRE 608 -176 528 -176
WIRE 720 -176 720 -272
WIRE 720 -176 688 -176
WIRE 768 -176 720 -176
WIRE -272 -128 -272 -144
WIRE -176 -128 -176 -144
WIRE -272 -32 -272 -48
WIRE -176 -32 -176 -48
WIRE 192 -32 112 -32
WIRE 288 -32 272 -32
WIRE 208 16 176 16
WIRE 272 16 256 16
WIRE 368 32 368 -16
WIRE 16 80 16 -176
WIRE 16 80 -112 80
WIRE 176 80 176 16
WIRE 176 80 16 80
WIRE 192 80 176 80
WIRE 272 80 272 16
WIRE 304 80 272 80
WIRE 336 80 304 80
WIRE 768 112 768 -176
WIRE 768 112 480 112
WIRE 816 112 768 112
WIRE 832 112 816 112
WIRE -112 128 -112 80
WIRE 144 144 32 144
WIRE 336 144 144 144
WIRE 32 176 32 144
WIRE 304 176 304 80
WIRE 144 192 144 144
WIRE 416 208 416 192
WIRE 144 240 144 192
WIRE 304 240 304 176
WIRE 32 288 32 256
WIRE 368 288 368 192
WIRE -112 320 -112 208
WIRE 32 480 32 368
FLAG -176 -32 0
FLAG 368 -16 +V
FLAG -176 -144 -V
FLAG -112 320 0
FLAG 816 112 vout
FLAG -272 -32 0
FLAG -272 -144 +V
FLAG 368 288 -V
FLAG 32 480 0
FLAG 112 -32 V_Inoise
FLAG 288 -32 0
FLAG 304 176 Vm
FLAG 144 192 Vp
SYMBOL voltage -176 -144 R0
WINDOW 123 0 0 Left 2
WINDOW 39 0 0 Left 2
SYMATTR InstName V1
SYMATTR Value -2.5
SYMBOL res 704 -192 R90
WINDOW 0 0 56 VBottom 2
WINDOW 3 32 56 VTop 2
SYMATTR InstName R1
SYMATTR Value 1K noiseless
SYMBOL cap 576 -256 R270
WINDOW 0 32 32 VTop 2
WINDOW 3 0 32 VBottom 2
SYMATTR InstName C3
SYMATTR Value {Cf}
SYMBOL res 48 272 R180
WINDOW 0 36 76 Left 2
WINDOW 3 36 40 Left 2
SYMATTR InstName R3
SYMATTR Value 10 noiseless
SYMBOL voltage -272 -144 R0
WINDOW 123 0 0 Left 2
WINDOW 39 0 0 Left 2
SYMATTR InstName V2
SYMATTR Value 2.5
SYMBOL res -96 224 R180
WINDOW 0 36 76 Left 2
WINDOW 3 36 40 Left 2
SYMATTR InstName R2
SYMATTR Value 10 noiseless
SYMBOL voltage 32 272 R0
WINDOW 123 24 124 Left 2
WINDOW 39 0 0 Left 2
SYMATTR Value2 AC 0
SYMATTR InstName V3
SYMATTR Value PULSE(0 .001 200n 1n 1n 100n 200n)
SYMBOL res 288 64 R90
WINDOW 0 0 56 VBottom 2
WINDOW 3 32 56 VTop 2
SYMATTR InstName R4
SYMATTR Value 1 Noiseless
SYMBOL e 176 -32 R270
SYMATTR InstName E1
SYMATTR Value 1
SYMBOL opamps\\LTC6268-10 368 112 R0
SYMATTR InstName U1
TEXT 672 240 Left 2 !;ac dec 200 100k 3000Meg
TEXT 672 200 Left 2 !;tran 2u
TEXT 672 280 Left 2 !.noise V(Vm) V3 oct 100 10k 300Meg
TEXT 760 -128 Left 2 !;.step param Cf list .5p  1.0p 2.2p 4.7p
TEXT 768 -208 Left 2 !.param Cf=.1p
