Version 4
SHEET 1 992 680
WIRE 48 32 16 32
WIRE 240 32 112 32
WIRE -496 96 -512 96
WIRE -80 96 -416 96
WIRE 16 96 16 32
WIRE 16 96 0 96
WIRE 112 96 16 96
WIRE 240 96 240 32
WIRE 240 96 192 96
WIRE 80 144 -224 144
WIRE -224 160 -224 144
WIRE 80 160 80 144
WIRE 16 208 16 96
WIRE 48 208 16 208
WIRE 240 208 240 96
WIRE 240 208 208 208
WIRE 320 208 240 208
WIRE -48 240 -64 240
WIRE 48 240 16 240
WIRE -400 272 -432 272
WIRE -336 272 -400 272
WIRE 16 272 -288 272
WIRE 48 272 16 272
WIRE 240 272 208 272
WIRE 320 272 240 272
WIRE -336 288 -336 272
WIRE 16 288 16 272
WIRE -288 304 -288 272
WIRE 80 336 80 320
WIRE -288 384 -288 352
WIRE 16 384 16 368
WIRE 16 384 -288 384
WIRE 112 384 16 384
WIRE 240 384 240 272
WIRE 240 384 192 384
WIRE -336 400 -336 368
WIRE -512 448 -512 96
WIRE -512 448 -528 448
WIRE -80 448 -512 448
WIRE 16 448 16 384
WIRE 16 448 0 448
WIRE 48 448 16 448
WIRE 240 448 240 384
WIRE 240 448 112 448
FLAG -224 240 0
FLAG -64 240 0
FLAG 80 336 0
FLAG 320 208 out+
FLAG 320 272 out-
FLAG -528 448 0
FLAG -336 400 0
FLAG -400 272 VINoise
SYMBOL voltage -400 96 R90
WINDOW 123 -4 56 VBottom 2
WINDOW 39 53 56 VTop 2
WINDOW 0 -32 56 VBottom 2
WINDOW 3 32 56 VTop 2
SYMATTR InstName V3
SYMATTR Value ""
SYMBOL voltage -224 144 R0
SYMATTR InstName V1
SYMATTR Value 5
SYMBOL res 208 80 R90
WINDOW 0 0 56 VBottom 2
WINDOW 3 32 56 VTop 2
SYMATTR InstName R1
SYMATTR Value 150
SYMBOL res 208 368 R90
WINDOW 0 0 56 VBottom 2
WINDOW 3 32 56 VTop 2
SYMATTR InstName R3
SYMATTR Value 150
SYMBOL cap 16 224 R90
WINDOW 0 0 32 VBottom 2
WINDOW 3 32 32 VTop 2
SYMATTR InstName C1
SYMATTR Value .1µ
SYMBOL opamps\\LTC6409 112 240 R0
SYMATTR InstName U1
SYMBOL cap 112 16 R90
WINDOW 0 0 32 VBottom 2
WINDOW 3 32 32 VTop 2
SYMATTR InstName C2
SYMATTR Value 1.3p
SYMBOL cap 112 432 R90
WINDOW 0 0 32 VBottom 2
WINDOW 3 32 32 VTop 2
SYMATTR InstName C3
SYMATTR Value 1.3p
SYMBOL res 16 432 R90
WINDOW 0 0 56 VBottom 2
WINDOW 3 32 56 VTop 2
SYMATTR InstName R2
SYMATTR Value 150
SYMBOL res 16 80 R90
WINDOW 0 0 56 VBottom 2
WINDOW 3 32 56 VTop 2
SYMATTR InstName R4
SYMATTR Value 150
SYMBOL res 32 384 R180
WINDOW 0 36 76 Left 2
WINDOW 3 36 40 Left 2
SYMATTR InstName R5
SYMATTR Value 1 NOISELESS
SYMBOL e -336 272 M0
SYMATTR InstName E1
SYMATTR Value 1
TEXT -472 520 Left 2 !;noise V(out+,out-) V3 dec 100 1 1G
TEXT 392 96 Left 2 ;Run This.\nThe Current Noise is taken from the noise VINoise.\nThis directly measures the amplifier current noise.
TEXT -32 520 Left 2 !.noise V(VINoise) V3 dec 100 1 1G
