Version 4
SHEET 1 1952 720
WIRE 1072 -144 1072 -192
WIRE 1360 -144 1360 -192
WIRE 64 -96 32 -96
WIRE 832 -96 144 -96
WIRE 432 -32 416 -32
WIRE 544 -32 512 -32
WIRE 624 -32 544 -32
WIRE 736 -32 704 -32
WIRE 832 -32 832 -96
WIRE 832 -32 800 -32
WIRE 1072 -32 1072 -64
WIRE 1360 -32 1360 -64
WIRE 272 -16 96 -16
WIRE 352 -16 336 -16
WIRE 160 16 160 0
WIRE 192 16 160 16
WIRE 416 16 416 -32
WIRE 192 32 192 16
WIRE 592 32 592 16
WIRE 544 48 544 -32
WIRE 560 48 544 48
WIRE -288 64 -384 64
WIRE -272 64 -288 64
WIRE -176 64 -192 64
WIRE -96 64 -176 64
WIRE 32 64 32 -96
WIRE 32 64 -16 64
WIRE 96 64 96 -16
WIRE 96 64 32 64
WIRE 144 64 96 64
WIRE 832 64 832 -32
WIRE 832 64 624 64
WIRE 880 64 832 64
WIRE 352 80 352 -16
WIRE 352 80 256 80
WIRE 560 80 352 80
WIRE 1504 80 1504 32
WIRE 1504 80 1056 80
WIRE 1600 80 1504 80
WIRE 144 96 96 96
WIRE -384 112 -384 64
WIRE 576 112 576 96
WIRE 608 112 608 96
WIRE -208 144 -256 144
WIRE 1056 144 1056 80
WIRE 1504 144 1504 80
WIRE 160 160 160 144
WIRE 1600 160 1600 80
WIRE 192 176 192 128
WIRE -256 192 -256 144
WIRE -256 192 -288 192
WIRE -240 192 -256 192
WIRE -128 192 -160 192
WIRE -288 240 -288 192
WIRE -64 272 -80 272
WIRE 48 272 16 272
WIRE 48 304 48 272
WIRE 96 304 96 96
WIRE 96 304 48 304
WIRE 208 304 96 304
WIRE 288 304 272 304
WIRE 832 304 832 64
WIRE 832 304 368 304
WIRE 1056 304 1056 224
WIRE 1504 304 1504 224
WIRE 1504 304 1056 304
WIRE 1600 304 1600 224
WIRE 1600 304 1504 304
WIRE -80 320 -80 272
WIRE -80 320 -112 320
WIRE 1504 352 1504 304
WIRE -80 368 -80 320
WIRE -48 368 -80 368
WIRE 48 368 48 304
WIRE 48 368 16 368
FLAG 1072 -32 0
FLAG 1360 -32 0
FLAG 1072 -192 V+
FLAG 1360 -192 V-
FLAG 160 0 V+
FLAG 160 160 V-
FLAG -112 320 0
FLAG 1504 32 T
FLAG -176 64 A
IOPIN -176 64 BiDir
FLAG -288 64 B
IOPIN -288 64 BiDir
FLAG 1504 352 0
FLAG -384 112 0
FLAG -288 240 0
FLAG 592 16 V+
FLAG 576 112 V-
FLAG 416 16 0
FLAG 880 64 output
FLAG 192 176 0
SYMBOL res 160 -112 R90
WINDOW 0 0 56 VBottom 2
WINDOW 3 32 56 VTop 2
SYMATTR InstName R1
SYMATTR Value 432
SYMBOL res 272 288 M90
WINDOW 0 0 56 VBottom 2
WINDOW 3 32 56 VTop 2
SYMATTR InstName R2
SYMATTR Value 464
SYMBOL res 32 288 M270
WINDOW 0 32 56 VTop 2
WINDOW 3 0 56 VBottom 2
SYMATTR InstName R3
SYMATTR Value 464
SYMBOL cap 208 288 M90
WINDOW 0 0 32 VBottom 2
WINDOW 3 32 32 VTop 2
SYMATTR InstName C1
SYMATTR Value 68n
SYMBOL cap 16 384 M270
WINDOW 0 32 32 VTop 2
WINDOW 3 0 32 VBottom 2
SYMATTR InstName C2
SYMATTR Value 68n
SYMBOL voltage 1072 -160 R0
WINDOW 123 0 0 Left 2
WINDOW 39 0 0 Left 2
SYMATTR InstName V1
SYMATTR Value PWL(0 0 10u {v})
SYMBOL voltage 1360 -160 R0
WINDOW 123 0 0 Left 2
WINDOW 39 0 0 Left 2
SYMATTR InstName V2
SYMATTR Value PWL(0 0 10u {-v})
SYMBOL bi2 1056 144 R0
SYMATTR InstName B1
SYMATTR Value I=V(A,B)*I(rlamp1)/({vlamp}*{ilamp})
SYMBOL res 1488 128 R0
SYMATTR InstName R4
SYMATTR Value 1
SYMBOL cap 1584 160 R0
SYMATTR InstName C3
SYMATTR Value 0.05
SYMBOL res -176 80 M270
WINDOW 0 32 56 VTop 2
WINDOW 3 104 52 VBottom 2
SYMATTR InstName Rlamp1
SYMATTR Value R=rcold*10**((V(T)+T0n)/(6*T0n))
SYMBOL res 0 48 R90
WINDOW 0 0 56 VBottom 2
WINDOW 3 32 56 VTop 2
SYMATTR InstName R5
SYMATTR Value 20
SYMBOL cap 336 -32 R90
WINDOW 0 0 32 VBottom 2
WINDOW 3 32 32 VTop 2
SYMATTR InstName C4
SYMATTR Value 200p
SYMBOL res -32 208 M270
WINDOW 0 32 56 VTop 2
WINDOW 3 0 56 VBottom 2
SYMATTR InstName R6
SYMATTR Value 3.24k
SYMBOL Opamps\\Lt1206 592 0 R0
SYMATTR InstName U1
SYMBOL res -144 208 M270
WINDOW 0 32 56 VTop 2
WINDOW 3 0 56 VBottom 2
SYMATTR InstName R7
SYMATTR Value 10k
SYMBOL res 528 -48 R90
WINDOW 0 0 56 VBottom 2
WINDOW 3 32 56 VTop 2
SYMATTR InstName R8
SYMATTR Value 324
SYMBOL res 720 -48 R90
WINDOW 0 0 56 VBottom 2
WINDOW 3 32 56 VTop 2
SYMATTR InstName R9
SYMATTR Value 649
SYMBOL cap 736 -48 M90
WINDOW 0 0 32 VBottom 2
WINDOW 3 32 32 VTop 2
SYMATTR InstName C5
SYMATTR Value 10n
SYMBOL Opamps\\LT6018 192 80 R0
SYMATTR InstName U3
TEXT -280 440 Left 2 !.tran 1
TEXT 1432 -192 Left 2 !.param v=15
TEXT 968 376 Left 2 !.param vlamp=28 ilamp=43m ratio=0.2\n.param rhot=vlamp/ilamp rcold=rhot*ratio\n.param T0n=1/(6*log10(rhot/rcold)-1)
TEXT 880 472 Left 2 ;RATIO is contrived to give 16Vpp, in agreement with LT6018 application.
TEXT 1160 64 Left 2 ;Normalized Temperature Rise
TEXT -224 248 Left 2 ;POT
