Version 4
SHEET 1 2056 1140
WIRE 1296 -272 1184 -272
WIRE 1552 -272 1376 -272
WIRE 672 -256 592 -256
WIRE 896 -256 752 -256
WIRE 256 -192 -96 -192
WIRE 256 -144 256 -192
WIRE 384 -144 256 -144
WIRE 592 -144 592 -256
WIRE 592 -144 464 -144
WIRE 112 -128 16 -128
WIRE 256 -112 256 -144
WIRE -96 -96 -96 -192
WIRE 16 -96 16 -128
WIRE 112 -96 112 -128
WIRE 688 -96 688 -144
WIRE 1344 -96 1344 -144
WIRE 592 -48 592 -144
WIRE 656 -48 592 -48
WIRE 1184 -48 1184 -272
WIRE 1312 -48 1184 -48
WIRE 896 -16 896 -256
WIRE 896 -16 800 -16
WIRE 992 -16 896 -16
WIRE 1024 -16 992 -16
WIRE 1184 -16 1184 -48
WIRE 1184 -16 1104 -16
WIRE 1552 -16 1552 -272
WIRE 1552 -16 1456 -16
WIRE 1600 -16 1552 -16
WIRE 1632 -16 1600 -16
WIRE 256 16 256 -32
WIRE 368 16 256 16
WIRE 464 16 448 16
WIRE 592 16 464 16
WIRE 656 16 592 16
WIRE 1312 16 1264 16
WIRE -96 80 -96 -16
WIRE 16 80 16 -16
WIRE 112 80 112 -16
WIRE 256 80 256 16
WIRE 464 96 464 16
WIRE 592 96 592 16
WIRE 736 96 736 64
WIRE 784 96 736 96
WIRE 816 96 784 96
WIRE 1392 96 1392 64
WIRE 1440 96 1392 96
WIRE 1472 96 1440 96
WIRE 688 112 688 64
WIRE 1088 112 1040 112
WIRE 1136 112 1088 112
WIRE 1264 112 1264 16
WIRE 1264 112 1216 112
WIRE 1344 112 1344 64
WIRE 1264 192 1264 112
WIRE 464 224 464 160
WIRE 592 224 592 176
WIRE 1264 320 1264 256
WIRE -80 400 -160 400
WIRE -48 400 -80 400
WIRE 256 400 176 400
WIRE 288 400 256 400
WIRE -160 416 -160 400
WIRE 1248 480 1200 480
WIRE 1312 480 1248 480
WIRE 1456 480 1392 480
WIRE 1568 480 1456 480
WIRE 64 496 64 464
WIRE 1248 576 1248 480
WIRE 1312 576 1248 576
WIRE 1456 576 1456 480
WIRE 1456 576 1376 576
WIRE 1360 704 1360 656
WIRE 1200 752 1200 480
WIRE 1328 752 1200 752
WIRE 1040 784 1008 784
WIRE 1200 784 1200 752
WIRE 1200 784 1120 784
WIRE 1568 784 1568 480
WIRE 1568 784 1472 784
WIRE 1616 784 1568 784
WIRE 1648 784 1616 784
WIRE 1328 816 1280 816
WIRE 1408 896 1408 864
WIRE 1456 896 1408 896
WIRE 1488 896 1456 896
WIRE 1104 912 1056 912
WIRE 1152 912 1104 912
WIRE 1280 912 1280 816
WIRE 1280 912 1232 912
WIRE 1360 912 1360 864
WIRE 1280 992 1280 912
WIRE 1280 1120 1280 1056
FLAG 64 496 0
FLAG 688 112 0
FLAG -160 496 0
FLAG -80 400 V+
FLAG 784 96 V+
FLAG 688 -144 V+
FLAG 256 400 V2p5
FLAG 464 224 0
FLAG 256 80 0
FLAG 112 80 0
FLAG 992 -16 VMID
FLAG 592 224 V2p5
FLAG 288 464 0
FLAG -96 80 0
FLAG 16 80 0
FLAG 1344 112 0
FLAG 1440 96 V+
FLAG 1344 -144 V+
FLAG 1088 112 V2p5
FLAG 1600 -16 OUTP
FLAG 1264 320 0
FLAG 1008 784 OUTP
FLAG 1360 912 0
FLAG 1456 896 V+
FLAG 1360 656 V+
FLAG 1104 912 V2p5
FLAG 1280 1120 0
FLAG 1616 784 OUTN
SYMBOL voltage -160 400 R0
WINDOW 123 0 0 Left 2
WINDOW 39 0 0 Left 2
SYMATTR InstName V1
SYMATTR Value 5
SYMBOL References\\LT6654-2.5 64 400 R0
SYMATTR InstName U2
SYMBOL res 464 0 R90
WINDOW 0 0 56 VBottom 2
WINDOW 3 32 56 VTop 2
SYMATTR InstName R1
SYMATTR Value 1K
SYMBOL res 608 192 R180
WINDOW 0 36 76 Left 2
WINDOW 3 36 40 Left 2
SYMATTR InstName R2
SYMATTR Value 7.9K
SYMBOL cap 448 96 R0
SYMATTR InstName C1
SYMATTR Value 1µ
SYMBOL res 240 -128 R0
SYMATTR InstName R3
SYMATTR Value .003
SYMBOL res 480 -160 R90
WINDOW 0 0 56 VBottom 2
WINDOW 3 32 56 VTop 2
SYMATTR InstName R4
SYMATTR Value 1K
SYMBOL res 768 -272 R90
WINDOW 0 0 56 VBottom 2
WINDOW 3 32 56 VTop 2
SYMATTR InstName R5
SYMATTR Value 7.9K
SYMBOL current 112 -16 R180
WINDOW 0 24 80 Left 2
WINDOW 3 24 0 Left 2
WINDOW 123 0 0 Left 2
WINDOW 39 0 0 Left 2
SYMATTR InstName I1
SYMATTR Value PWL(0 -500m 1m -500m 9m 500m)
SYMBOL cap 272 400 R0
SYMATTR InstName C2
SYMATTR Value 1µ
SYMBOL current -96 -16 R180
WINDOW 0 24 80 Left 2
WINDOW 3 24 0 Left 2
WINDOW 123 0 0 Left 2
WINDOW 39 0 0 Left 2
SYMATTR InstName I2
SYMATTR Value PULSE(-400m .4 100u 10n 10n 100u 200u)
SYMBOL res 32 0 R180
WINDOW 0 36 76 Left 2
WINDOW 3 36 40 Left 2
SYMATTR InstName R6
SYMATTR Value 10K
SYMBOL res 1120 -32 R90
WINDOW 0 0 56 VBottom 2
WINDOW 3 32 56 VTop 2
SYMATTR InstName R7
SYMATTR Value 1K
SYMBOL res 1392 -288 R90
WINDOW 0 0 56 VBottom 2
WINDOW 3 32 56 VTop 2
SYMATTR InstName R8
SYMATTR Value 7.9K
SYMBOL res 1232 96 R90
WINDOW 0 0 56 VBottom 2
WINDOW 3 32 56 VTop 2
SYMATTR InstName R9
SYMATTR Value 1K
SYMBOL cap 1248 192 R0
SYMATTR InstName C3
SYMATTR Value 1µ
SYMBOL Opamps\\LTC2051 688 -16 R0
SYMATTR InstName U1
SYMBOL Opamps\\LTC2051 1344 -16 R0
SYMATTR InstName U3
SYMBOL res 1136 768 R90
WINDOW 0 0 56 VBottom 2
WINDOW 3 32 56 VTop 2
SYMATTR InstName R10
SYMATTR Value 7.9K
SYMBOL res 1408 464 R90
WINDOW 0 0 56 VBottom 2
WINDOW 3 32 56 VTop 2
SYMATTR InstName R11
SYMATTR Value 7.9K
SYMBOL res 1248 896 R90
WINDOW 0 0 56 VBottom 2
WINDOW 3 32 56 VTop 2
SYMATTR InstName R12
SYMATTR Value 3.95K
SYMBOL cap 1264 992 R0
SYMATTR InstName C4
SYMATTR Value 1µ
SYMBOL Opamps\\LTC2051 1360 784 R0
SYMATTR InstName U4
SYMBOL cap 1376 560 R90
WINDOW 0 0 32 VBottom 2
WINDOW 3 35 29 VTop 2
SYMATTR InstName C5
SYMATTR Value 10p
TEXT 296 -288 Left 2 !.tran 1m
TEXT -120 -272 Left 2 ;Use I2 or I1.\nShunt the other one to R6.
TEXT 480 368 Left 2 ;Total voltage gain is 125 V/V.   400 mA * 3mOhm = 1.2mV.\nTwo amps in a row, each with sqrt(total gain).\nThe 2050/1/2 allows common mode down to the bottom rail.
TEXT 1512 256 Left 2 ;Differential output centered at the reference.
