Version 4
SHEET 1 2048 716
WIRE 1296 -272 1184 -272
WIRE 1552 -272 1376 -272
WIRE 672 -256 592 -256
WIRE 896 -256 752 -256
WIRE 256 -192 -96 -192
WIRE 256 -144 256 -192
WIRE 384 -144 256 -144
WIRE 592 -144 592 -256
WIRE 592 -144 464 -144
WIRE 112 -128 16 -128
WIRE 256 -112 256 -144
WIRE -96 -96 -96 -192
WIRE 16 -96 16 -128
WIRE 112 -96 112 -128
WIRE 688 -96 688 -144
WIRE 1344 -96 1344 -144
WIRE 592 -48 592 -144
WIRE 656 -48 592 -48
WIRE 1184 -48 1184 -272
WIRE 1312 -48 1184 -48
WIRE 896 -16 896 -256
WIRE 896 -16 800 -16
WIRE 992 -16 896 -16
WIRE 1024 -16 992 -16
WIRE 1184 -16 1184 -48
WIRE 1184 -16 1104 -16
WIRE 1552 -16 1552 -272
WIRE 1552 -16 1456 -16
WIRE 1600 -16 1552 -16
WIRE 1632 -16 1600 -16
WIRE 256 16 256 -32
WIRE 368 16 256 16
WIRE 464 16 448 16
WIRE 592 16 464 16
WIRE 656 16 592 16
WIRE 1312 16 1264 16
WIRE -96 80 -96 -16
WIRE 16 80 16 -16
WIRE 112 80 112 -16
WIRE 256 80 256 16
WIRE 464 96 464 16
WIRE 592 96 592 16
WIRE 736 96 736 64
WIRE 784 96 736 96
WIRE 816 96 784 96
WIRE 1392 96 1392 64
WIRE 1440 96 1392 96
WIRE 1472 96 1440 96
WIRE 688 112 688 64
WIRE 1088 112 1040 112
WIRE 1136 112 1088 112
WIRE 1264 112 1264 16
WIRE 1264 112 1216 112
WIRE 1344 112 1344 64
WIRE 1264 192 1264 112
WIRE 464 224 464 160
WIRE 592 224 592 176
WIRE 1264 320 1264 256
WIRE -80 400 -160 400
WIRE -48 400 -80 400
WIRE 256 400 176 400
WIRE 288 400 256 400
WIRE -160 416 -160 400
WIRE 64 496 64 464
FLAG 64 496 0
FLAG 688 112 0
FLAG -160 496 0
FLAG -80 400 V+
FLAG 784 96 V+
FLAG 688 -144 V+
FLAG 256 400 V2p5
FLAG 464 224 0
FLAG 256 80 0
FLAG 112 80 0
FLAG 992 -16 VMID
FLAG 592 224 V2p5
FLAG 288 464 0
FLAG -96 80 0
FLAG 16 80 0
FLAG 1344 112 0
FLAG 1440 96 V+
FLAG 1344 -144 V+
FLAG 1088 112 V2p5
FLAG 1600 -16 OUT
FLAG 1264 320 0
SYMBOL Opamps\\LTC2050 688 -16 R0
SYMATTR InstName U1
SYMBOL voltage -160 400 R0
WINDOW 123 0 0 Left 2
WINDOW 39 0 0 Left 2
SYMATTR InstName V1
SYMATTR Value 5
SYMBOL References\\LT6654-2.5 64 400 R0
SYMATTR InstName U2
SYMBOL res 464 0 R90
WINDOW 0 0 56 VBottom 2
WINDOW 3 32 56 VTop 2
SYMATTR InstName R1
SYMATTR Value 1K
SYMBOL res 608 192 R180
WINDOW 0 36 76 Left 2
WINDOW 3 36 40 Left 2
SYMATTR InstName R2
SYMATTR Value 36K
SYMBOL cap 448 96 R0
SYMATTR InstName C1
SYMATTR Value 1µ
SYMBOL res 240 -128 R0
SYMATTR InstName R3
SYMATTR Value .003
SYMBOL res 480 -160 R90
WINDOW 0 0 56 VBottom 2
WINDOW 3 32 56 VTop 2
SYMATTR InstName R4
SYMATTR Value 1K
SYMBOL res 768 -272 R90
WINDOW 0 0 56 VBottom 2
WINDOW 3 32 56 VTop 2
SYMATTR InstName R5
SYMATTR Value 36K
SYMBOL current 112 -16 R180
WINDOW 0 24 80 Left 2
WINDOW 3 24 0 Left 2
WINDOW 123 0 0 Left 2
WINDOW 39 0 0 Left 2
SYMATTR InstName I1
SYMATTR Value PWL(0 -500m 1m -500m 9m 500m)
SYMBOL cap 272 400 R0
SYMATTR InstName C2
SYMATTR Value 1µ
SYMBOL current -96 -16 R180
WINDOW 0 24 80 Left 2
WINDOW 3 24 0 Left 2
WINDOW 123 0 0 Left 2
WINDOW 39 0 0 Left 2
SYMATTR InstName I2
SYMATTR Value PULSE(-500m 500m 1m 1u 1u 5m 10m)
SYMBOL res 32 0 R180
WINDOW 0 36 76 Left 2
WINDOW 3 36 40 Left 2
SYMATTR InstName R6
SYMATTR Value 10K
SYMBOL Opamps\\LTC2050 1344 -16 R0
SYMATTR InstName U3
SYMBOL res 1120 -32 R90
WINDOW 0 0 56 VBottom 2
WINDOW 3 32 56 VTop 2
SYMATTR InstName R7
SYMATTR Value 1K
SYMBOL res 1392 -288 R90
WINDOW 0 0 56 VBottom 2
WINDOW 3 32 56 VTop 2
SYMATTR InstName R8
SYMATTR Value 36K
SYMBOL res 1232 96 R90
WINDOW 0 0 56 VBottom 2
WINDOW 3 32 56 VTop 2
SYMATTR InstName R9
SYMATTR Value 36K
SYMBOL cap 1248 192 R0
SYMATTR InstName C3
SYMATTR Value 1µ
TEXT 296 -288 Left 2 !.tran 50m
TEXT 448 328 Left 2 ;Total voltage gain is 1333 from 1A => 4V p-p.\n1A through 3mOhms = 3mV.   4V/3mV = 1333.\nUse gain of 36 twice.\nThis topology allows the common mode of both amps to remain roughly constant.\nThe current draw from the 2.5V reference is not very large.\nThe 2050 allows common mode down to the bottom rail.\n \nAccuracy cannot be better than 10% at 10 mA based on the first 2050 with 3uV offset and the 10mA developing only 30uV.\n \nThe two sides of the sense resistor can be Kelvin sensed. This makes it easier.\nThere is less need to make sure the ground of the reference and amps are exactly the same\nas the sense resistor ground.
TEXT -120 -272 Left 2 ;Use I2 or I1.\nShunt the other one to R6.
