Version 4
SHEET 1 1072 680
WIRE 16 -128 -80 -128
WIRE 144 -128 16 -128
WIRE 272 -128 224 -128
WIRE -208 -16 -240 -16
WIRE -80 -16 -80 -128
WIRE -80 -16 -128 -16
WIRE -400 16 -400 -64
WIRE -400 16 -448 16
WIRE 96 32 96 -160
WIRE -448 48 -448 16
WIRE -240 80 -240 -16
WIRE -240 80 -304 80
WIRE 16 80 16 -128
WIRE 64 80 16 80
WIRE 272 80 272 -128
WIRE 272 80 224 80
WIRE 352 80 272 80
WIRE -400 96 -400 16
WIRE 64 112 -112 112
WIRE -112 128 -112 112
WIRE 64 144 16 144
WIRE 272 144 224 144
WIRE 352 144 272 144
WIRE -304 160 -304 80
WIRE -304 272 -304 240
WIRE -240 272 -240 80
WIRE -208 272 -240 272
WIRE -80 272 -128 272
WIRE -80 352 -80 272
WIRE 16 352 16 144
WIRE 16 352 -80 352
WIRE 144 352 16 352
WIRE 272 352 272 144
WIRE 272 352 224 352
WIRE 96 368 96 192
FLAG -448 48 0
FLAG -400 -144 Vcc
FLAG -400 176 Vee
FLAG -304 272 0
FLAG -304 80 VCMt
FLAG 96 -160 Vcc
FLAG 96 368 Vee
FLAG -112 128 0
FLAG 352 80 Vp
FLAG 352 144 Vm
SYMBOL voltage -304 144 R0
WINDOW 3 24 44 Left 2
WINDOW 123 -126 122 Left 0
WINDOW 39 0 0 Left 0
SYMATTR Value PWL(0 -3 .1 -3 .9 3)
SYMATTR Value2 AC 1v 0
SYMATTR InstName V1
SYMBOL voltage -400 -160 R0
WINDOW 123 0 0 Left 0
WINDOW 39 0 0 Left 0
SYMATTR InstName V2
SYMATTR Value 5
SYMBOL voltage -400 80 R0
WINDOW 123 0 0 Left 0
WINDOW 39 0 0 Left 0
SYMATTR InstName V3
SYMATTR Value 5
SYMBOL res -112 -32 R90
WINDOW 0 0 56 VBottom 0
WINDOW 3 32 56 VTop 0
SYMATTR InstName R5
SYMATTR Value 10.01
SYMBOL res -112 256 R90
WINDOW 0 0 56 VBottom 0
WINDOW 3 32 56 VTop 0
SYMATTR InstName R7
SYMATTR Value 9.99
SYMBOL Opamps\\LTC6363 128 112 R0
SYMATTR InstName U1
SYMBOL res 240 -144 R90
WINDOW 0 0 56 VBottom 0
WINDOW 3 32 56 VTop 0
SYMATTR InstName R3
SYMATTR Value 999
SYMBOL res 240 336 R90
WINDOW 0 0 56 VBottom 0
WINDOW 3 32 56 VTop 0
SYMATTR InstName R1
SYMATTR Value 1001
TEXT 200 520 Left 0 !;ac dec 100 10K 100meg
TEXT -112 -240 Left 0 ;CMRR vs. Frequency
TEXT -176 472 Left 2 !.tran 0 1 0
