Version 4
SHEET 1 3084 1268
WIRE -368 -720 -368 -752
WIRE 480 -624 480 -656
WIRE -368 -608 -368 -640
WIRE 48 -480 -112 -480
WIRE 128 -480 48 -480
WIRE 480 -480 480 -544
WIRE 480 -480 384 -480
WIRE 48 -448 48 -480
WIRE 480 -448 480 -480
WIRE -112 -416 -112 -480
WIRE 848 -400 736 -400
WIRE 736 -368 736 -400
WIRE 48 -336 48 -384
WIRE 256 -336 256 -368
WIRE 256 -336 48 -336
WIRE 480 -336 480 -384
WIRE 480 -336 256 -336
WIRE 848 -320 848 -400
WIRE 880 -320 848 -320
WIRE 1008 -320 960 -320
WIRE 1040 -320 1008 -320
WIRE 1200 -320 1120 -320
WIRE -112 -304 -112 -336
WIRE 176 -288 48 -288
WIRE 736 -256 736 -288
WIRE 112 -224 112 -240
WIRE 48 -208 48 -288
WIRE 80 -208 48 -208
WIRE 176 -192 176 -288
WIRE 176 -192 144 -192
WIRE 256 -192 256 -336
WIRE 256 -192 176 -192
WIRE -112 -176 -112 -224
WIRE -32 -176 -112 -176
WIRE 80 -176 48 -176
WIRE 112 -128 112 -160
WIRE 1088 -128 1088 -176
WIRE 1008 -112 1008 -320
WIRE 1056 -112 1008 -112
WIRE 1200 -96 1200 -320
WIRE 1200 -96 1120 -96
WIRE 1232 -96 1200 -96
WIRE 1296 -96 1232 -96
WIRE 1696 -96 1376 -96
WIRE -352 -80 -560 -80
WIRE -112 -80 -112 -176
WIRE -112 -80 -272 -80
WIRE 256 -80 256 -192
WIRE 256 -80 -16 -80
WIRE 800 -80 560 -80
WIRE 960 -80 880 -80
WIRE 1056 -80 960 -80
WIRE 960 -48 960 -80
WIRE 1088 -48 1088 -64
WIRE -608 -32 -560 -80
WIRE -112 -32 -608 -32
WIRE -16 -16 -16 -80
WIRE 32 -16 -16 -16
WIRE 128 -16 112 -16
WIRE 240 -16 128 -16
WIRE 336 -16 320 -16
WIRE 176 16 176 -32
WIRE 128 32 128 -16
WIRE 144 32 128 32
WIRE 336 48 336 -16
WIRE 336 48 208 48
WIRE -608 64 -608 48
WIRE -112 64 -112 -32
WIRE -64 64 -112 64
WIRE 144 64 16 64
WIRE 336 64 336 48
WIRE 496 64 336 64
WIRE 560 64 560 -80
WIRE 560 64 496 64
WIRE 960 64 960 32
WIRE 176 96 176 80
WIRE -560 128 -608 64
WIRE -352 128 -560 128
WIRE -112 128 -272 128
WIRE -112 256 -112 128
WIRE 960 256 48 256
FLAG 112 -240 +V
FLAG -112 256 0
FLAG 480 -656 +V
FLAG 176 -32 +V
FLAG 112 -128 0
FLAG 176 96 0
FLAG 1088 -176 +V
FLAG 1088 -48 0
FLAG 960 64 0
FLAG 1232 -96 Vr
FLAG 496 64 Vrtd
FLAG 736 -256 0
FLAG -368 -608 0
FLAG -368 -752 +V
SYMBOL res -128 -432 R0
SYMATTR InstName R4
SYMATTR Value 1.24K
SYMBOL res -624 -48 R0
SYMATTR InstName R1
SYMATTR Value 147.95
SYMBOL res -368 144 R270
WINDOW 0 32 56 VTop 2
WINDOW 3 0 56 VBottom 2
SYMATTR InstName R2
SYMATTR Value 36
SYMBOL res -256 -96 R90
WINDOW 0 0 56 VBottom 2
WINDOW 3 32 56 VTop 2
SYMATTR InstName R6
SYMATTR Value 36
SYMBOL res -128 -320 R0
SYMATTR InstName R4b
SYMATTR Value 10
SYMBOL res 64 -192 R90
WINDOW 0 0 56 VBottom 2
WINDOW 3 32 56 VTop 2
SYMATTR InstName R3
SYMATTR Value 1k
SYMBOL res 464 -640 R0
SYMATTR InstName R5
SYMATTR Value 330
SYMBOL res 16 0 R270
WINDOW 0 32 56 VTop 2
WINDOW 3 0 56 VBottom 2
SYMATTR InstName R7
SYMATTR Value 2k
SYMBOL res 224 0 R270
WINDOW 0 32 56 VTop 2
WINDOW 3 0 56 VBottom 2
SYMATTR InstName R13
SYMATTR Value 2k
SYMBOL res 32 48 R90
WINDOW 0 0 56 VBottom 2
WINDOW 3 32 56 VTop 2
SYMATTR InstName R8
SYMATTR Value 1k
SYMBOL cap 464 -448 R0
SYMATTR InstName C1
SYMATTR Value 0.1µf
SYMBOL PowerProducts\\LT1790-1.25 256 -480 M0
SYMATTR InstName U3
SYMBOL cap 32 -448 R0
SYMATTR InstName C2
SYMATTR Value 1µ
SYMATTR SpiceLine V=10 Irms=0 Rser=0.009 Lser=0 mfg="TDK" pn="C1608X5RIA105K" type="X5R"
SYMBOL Opamps\\LTC2052 112 -192 R0
SYMATTR InstName U1
SYMBOL Opamps\\LTC2052 176 48 R0
SYMATTR InstName U4
SYMBOL res 1392 -112 R90
WINDOW 0 0 56 VBottom 2
WINDOW 3 32 56 VTop 2
SYMATTR InstName R15
SYMATTR Value 1.58K
SYMBOL Opamps\\LTC2052 1088 -96 R0
SYMATTR InstName U6
SYMBOL res 896 -96 R90
WINDOW 0 0 56 VBottom 2
WINDOW 3 32 56 VTop 2
SYMATTR InstName R16
SYMATTR Value 10k
SYMBOL res 976 48 R180
WINDOW 0 36 76 Left 2
WINDOW 3 36 40 Left 2
SYMATTR InstName R17
SYMATTR Value 100K
SYMBOL res 1024 -304 R270
WINDOW 0 32 56 VTop 2
WINDOW 3 0 56 VBottom 2
SYMATTR InstName R18
SYMATTR Value 100K
SYMBOL res 864 -304 R270
WINDOW 0 32 56 VTop 2
WINDOW 3 0 56 VBottom 2
SYMATTR InstName R19
SYMATTR Value 10k
SYMBOL voltage 736 -384 R0
SYMATTR InstName V1
SYMATTR Value 68.35mV
SYMBOL voltage -368 -736 R0
WINDOW 123 0 0 Left 2
WINDOW 39 0 0 Left 2
SYMATTR InstName V2
SYMATTR Value 15V
TEXT -912 -256 Left 2 !.tran 3m
TEXT -528 32 Left 2 ;RTD is 100 ohm Platinum
TEXT 368 232 Left 2 ;CUSTOMER NOTICE
TEXT 72 272 Left 2 ;LINEAR TECHNOLOGY HAS MADE A BEST EFFORT TO DESIGN A CIRCUIT
TEXT 72 296 Left 2 ;THAT MEETS CUSTOMER-SUPPLIED SPECIFICATIONS; HOWEVER IT
TEXT 72 320 Left 2 ;REMAINS THE CUSTOMER'S RESPONSIBILITY TO VERIFY PROPER AND
TEXT 72 344 Left 2 ;RELIABLE OPERATION IN THE ACTUAL APPLICATION.  COMPONENT
TEXT 72 368 Left 2 ;SUBSTITUTION AND PRINTED CIRCUIT BOARD LAYOUT MAY
TEXT 72 392 Left 2 ;SIGNIFICANTLY AFFECT CIRCUIT PERFORMANCE OR RELIABILITY.
TEXT 72 416 Left 2 ;CONTACT LINEAR TECHNOLOGY APPLICATIONS ENGINEERING
TEXT 72 440 Left 2 ;FOR ASSISTANCE.
TEXT 72 488 Left 2 ;THIS CIRCUIT IS PROPRIETARY TO LINEAR TECHNOLOGY AND
TEXT 72 512 Left 2 ;SUPPLIED FOR USE WITH LINEAR TECHNOLOGY PARTS.
TEXT -640 -224 Left 2 ;This box is the 3 wire RTD
TEXT -592 -120 Left 2 ;R2 and R6 represent\nwire resistance
TEXT -528 0 Left 2 ;R1 is the actual RTD element
TEXT -496 -336 Left 2 ;R4 is a 1.24K 0.1% for accuracy.\nR4b can be 1%.
TEXT -640 208 Left 2 ;RTD is 100 ohm with 3.85mV/C tempco\n-200C to 260C measurement range
TEXT 152 128 Left 2 ;Error Doubler Subtractor
TEXT -40 120 Left 2 ;5%
TEXT -8 -128 Left 2 ;5%
TEXT 312 -56 Left 2 ;0.1%
TEXT -8 -48 Left 2 ;0.1%
TEXT 568 -592 Left 2 ;5%
TEXT -648 336 Left 2 ;Platinum (0.00385 coefficient) RTD table shows\nNeed to operate from -40C to 125C\nR1 = 84.27 Ohms at -40C\nR1 = 100 Ohms at 0C\nR1 =  147.95 Ohms at 125C
TEXT 48 -576 Left 2 ;USE LT6654-1.25 instead of LT1790
TEXT -720 -192 Left 2 ;For 4-wire, just leave the 4th wire disconnected.
TEXT 304 -200 Left 2 ;The output of the error double/subtractor is 1mA*Rrtd\nfor -40C, Vout = 84.27mV\n0C, Vout = 100mV\n125C, Vout = 147.95mV
TEXT 904 -472 Left 2 ;No, actually want to subtract 68.35mV from RTD signal to make\nit go from 15.92mV to 79.60mV (scale of 1:5 = 4:20)\n \nI also took the liberty of applying a gain of 10.
TEXT 904 -544 Left 2 ;want to subtract 84.27mV from RTD signal to make\nit go from 0V to 63.68mV?
RECTANGLE Normal 960 464 48 208
RECTANGLE Normal 960 464 48 528
RECTANGLE Normal -640 -176 -224 192 1
