Version 4
SHEET 1 3232 872
WIRE -240 -368 -448 -368
WIRE -240 -320 -240 -368
WIRE -448 -208 -448 -368
WIRE -448 -208 -608 -208
WIRE -384 -208 -448 -208
WIRE -240 -208 -240 -240
WIRE -608 -160 -608 -208
WIRE -384 -160 -384 -208
WIRE -640 -112 -672 -112
WIRE -432 -80 -496 -80
WIRE -800 -48 -864 -48
WIRE -640 -48 -720 -48
WIRE -864 16 -864 -48
WIRE -672 16 -672 -112
WIRE -608 16 -608 0
WIRE -608 16 -672 16
WIRE -560 16 -560 0
WIRE -560 16 -608 16
WIRE -384 16 -384 -64
WIRE -384 16 -560 16
WIRE -384 80 -384 16
WIRE -864 224 -864 96
WIRE -384 224 -384 160
WIRE -384 224 -864 224
WIRE -240 224 -384 224
WIRE -96 224 -240 224
WIRE -240 240 -240 224
WIRE -240 368 -240 320
FLAG -240 368 0
FLAG -240 -208 0
SYMBOL voltage -864 0 R0
WINDOW 3 -462 56 Left 2
WINDOW 123 0 0 Left 2
WINDOW 39 0 0 Left 2
SYMATTR Value PWL(0s 100mV 4s 100mV 20s 500mV)
SYMATTR InstName V3
SYMBOL res -256 224 R0
SYMATTR InstName R1
SYMATTR Value 250
SYMBOL res -400 64 R0
SYMATTR InstName R2
SYMATTR Value 25
SYMBOL voltage -240 -336 R0
SYMATTR InstName V2
SYMATTR Value 24
SYMBOL res -704 -64 R90
WINDOW 0 0 56 VBottom 2
WINDOW 3 32 56 VTop 2
SYMATTR InstName R3
SYMATTR Value 1k
SYMBOL opamps\\LT1637 -608 -80 R0
SYMATTR InstName U1
SYMBOL nmos -432 -160 R0
SYMATTR InstName M1
SYMATTR Value 2N7002
TEXT -928 392 Left 2 !.tran 0 20s 2s
TEXT -1144 -128 Left 2 ;here it is
