Version 4
SHEET 1 3232 872
WIRE -576 -256 -832 -256
WIRE -192 -256 -336 -256
WIRE -832 -208 -832 -256
WIRE -832 -208 -992 -208
WIRE -768 -208 -832 -208
WIRE -672 -208 -768 -208
WIRE -192 -208 -192 -256
WIRE -992 -160 -992 -208
WIRE -768 -160 -768 -208
WIRE -1024 -112 -1056 -112
WIRE -192 -96 -192 -128
WIRE -816 -80 -880 -80
WIRE -1152 -48 -1200 -48
WIRE -1024 -48 -1072 -48
WIRE -672 -48 -672 -208
WIRE -576 -16 -576 -256
WIRE -336 -16 -336 -256
WIRE -336 -16 -576 -16
WIRE -1200 16 -1200 -48
WIRE -1056 16 -1056 -112
WIRE -992 16 -992 0
WIRE -992 16 -1056 16
WIRE -944 16 -944 0
WIRE -944 16 -992 16
WIRE -768 16 -768 -64
WIRE -768 16 -944 16
WIRE -336 16 -576 16
WIRE -768 80 -768 16
WIRE -1200 224 -1200 96
WIRE -768 224 -768 160
WIRE -768 224 -1200 224
WIRE -672 224 -672 16
WIRE -672 224 -768 224
WIRE -576 224 -576 16
WIRE -576 224 -672 224
WIRE -336 224 -336 16
WIRE -240 224 -336 224
WIRE -176 224 -240 224
WIRE -96 224 -176 224
WIRE -240 240 -240 224
WIRE -240 368 -240 320
FLAG -240 368 0
FLAG -192 -96 0
FLAG -176 224 Vout
SYMBOL voltage -1200 0 R0
WINDOW 3 -110 130 Left 2
WINDOW 123 0 0 Left 2
WINDOW 39 0 0 Left 2
SYMATTR Value PWL(0s 10mV 7s 700mV)
SYMATTR InstName V3
SYMBOL res -256 224 R0
SYMATTR InstName R1
SYMATTR Value 250
SYMBOL Misc\\2N7002 -816 -160 R0
SYMATTR InstName U2
SYMBOL res -784 64 R0
SYMATTR InstName R2
SYMATTR Value 34.8
SYMBOL voltage -192 -224 R0
SYMATTR InstName V2
SYMATTR Value 24
SYMBOL res -1056 -64 R90
WINDOW 0 0 56 VBottom 2
WINDOW 3 32 56 VTop 2
SYMATTR InstName R3
SYMATTR Value 1k
SYMBOL opamps\\LT1637 -992 -80 R0
SYMATTR InstName U1
SYMBOL cap -688 -48 R0
SYMATTR InstName C1
SYMATTR Value 2.2µ
TEXT -992 304 Left 2 !.tran 0 7s 0.1s
TEXT -480 0 Left 2 ;125ft
TEXT -1192 104 Left 2 ;Sensor Output
