Version 4
SHEET 1 3232 872
WIRE -1264 -608 -1296 -608
WIRE -1168 -608 -1200 -608
WIRE -1728 -528 -2128 -528
WIRE -1328 -528 -1728 -528
WIRE -944 -528 -1328 -528
WIRE -528 -528 -944 -528
WIRE -384 -528 -528 -528
WIRE -240 -528 -384 -528
WIRE -2128 -512 -2128 -528
WIRE -1296 -496 -1296 -608
WIRE -1296 -496 -1424 -496
WIRE -1264 -496 -1296 -496
WIRE -1168 -496 -1168 -608
WIRE -1168 -496 -1184 -496
WIRE -1728 -480 -1728 -528
WIRE -384 -480 -384 -528
WIRE -240 -480 -240 -528
WIRE -1328 -464 -1328 -528
WIRE -1424 -448 -1424 -496
WIRE -1360 -448 -1424 -448
WIRE -1424 -432 -1424 -448
WIRE -1168 -432 -1168 -496
WIRE -1168 -432 -1296 -432
WIRE -1968 -416 -2016 -416
WIRE -1840 -416 -1888 -416
WIRE -1520 -416 -1616 -416
WIRE -1360 -416 -1520 -416
WIRE -1520 -400 -1520 -416
WIRE -240 -368 -240 -400
WIRE -2128 -352 -2128 -432
WIRE -2016 -352 -2016 -416
WIRE -2016 -352 -2128 -352
WIRE -2128 -336 -2128 -352
WIRE -2016 -320 -2016 -352
WIRE -1840 -320 -2016 -320
WIRE -1584 -320 -1616 -320
WIRE -1520 -320 -1520 -336
WIRE -1520 -320 -1584 -320
WIRE -1424 -320 -1424 -352
WIRE -1424 -320 -1520 -320
WIRE -1280 -320 -1424 -320
WIRE -1120 -320 -1280 -320
WIRE -384 -320 -384 -416
WIRE -384 -320 -1120 -320
WIRE -1280 -288 -1280 -320
WIRE -752 -288 -864 -288
WIRE -1120 -272 -1120 -320
WIRE -1088 -272 -1088 -288
WIRE -1056 -272 -1056 -288
WIRE -944 -272 -944 -528
WIRE -864 -272 -864 -288
WIRE -2128 -224 -2128 -256
WIRE -1776 -224 -1776 -256
WIRE -1776 -224 -2128 -224
WIRE -1680 -224 -1680 -256
WIRE -1680 -224 -1776 -224
WIRE -1584 -224 -1584 -320
WIRE -1584 -224 -1680 -224
WIRE -1328 -176 -1328 -400
WIRE -1280 -176 -1280 -224
WIRE -1280 -176 -1328 -176
WIRE -752 -176 -752 -288
WIRE -560 -112 -576 -112
WIRE -464 -112 -496 -112
WIRE -384 -112 -384 -320
WIRE -528 -64 -528 -528
WIRE -672 -48 -688 -48
WIRE -576 -48 -576 -112
WIRE -576 -48 -592 -48
WIRE -560 -48 -576 -48
WIRE -464 -32 -464 -112
WIRE -464 -32 -496 -32
WIRE -432 -32 -464 -32
WIRE -752 -16 -752 -96
WIRE -560 -16 -752 -16
WIRE -1088 0 -1088 -16
WIRE -1056 0 -1056 -16
WIRE -1168 16 -1168 -432
WIRE -1120 16 -1120 -16
WIRE -1120 16 -1168 16
WIRE -1328 32 -1328 -176
WIRE -944 32 -944 -16
WIRE -944 32 -1328 32
WIRE -864 32 -864 -16
WIRE -864 32 -944 32
WIRE -688 32 -688 -48
WIRE -688 32 -864 32
WIRE -528 32 -528 0
WIRE -528 32 -688 32
WIRE -384 32 -384 -16
WIRE -384 32 -528 32
WIRE -384 80 -384 32
WIRE -752 128 -752 -16
WIRE -752 272 -752 208
WIRE -384 272 -384 160
WIRE -384 272 -752 272
WIRE -240 272 -384 272
WIRE -96 272 -240 272
WIRE -240 288 -240 272
WIRE -240 416 -240 368
FLAG -240 416 0
FLAG -240 -368 0
SYMBOL opamps\\UniversalOpamp -528 -32 R0
SYMATTR InstName U4
SYMATTR SpiceModel level1
SYMBOL res -256 272 R0
SYMATTR InstName R1
SYMATTR Value 250
SYMBOL Misc\\2N7002 -432 -112 R0
SYMATTR InstName U2
SYMBOL res -400 64 R0
SYMATTR InstName R2
SYMATTR Value 100
SYMBOL voltage -240 -496 R0
SYMATTR InstName V2
SYMATTR Value 24
SYMBOL res -736 224 R180
WINDOW 0 36 76 Left 0
WINDOW 3 36 40 Left 0
SYMATTR InstName R4
SYMATTR Value 20k
SYMBOL res -576 -64 R90
WINDOW 0 0 56 VBottom 0
WINDOW 3 32 56 VTop 0
SYMATTR InstName R5
SYMATTR Value 10k
SYMBOL cap -560 -96 R270
WINDOW 0 32 32 VTop 0
WINDOW 3 0 32 VBottom 0
SYMATTR InstName C1
SYMATTR Value 0.1µF
SYMBOL SpecialFunctions\\LTC1966 -1728 -368 R0
SYMATTR InstName U1
SYMBOL zener -368 -416 R180
WINDOW 0 24 72 Left 0
WINDOW 3 24 0 Left 0
SYMATTR InstName D1
SYMATTR Value BZX84C6V2L
SYMATTR Description Diode
SYMATTR Type diode
SYMBOL opamps\\UniversalOpamp -1328 -432 R0
SYMATTR InstName U2
SYMATTR SpiceModel level1
SYMBOL res -1440 -448 R0
SYMATTR InstName R3
SYMATTR Value 10k
SYMBOL res -1168 -512 R90
WINDOW 0 0 56 VBottom 0
WINDOW 3 32 56 VTop 0
SYMATTR InstName R6
SYMATTR Value 90k
SYMBOL opamps\\LT1991 -944 -144 R0
SYMATTR InstName U3
SYMBOL res -736 -80 R180
WINDOW 0 36 76 Left 0
WINDOW 3 36 40 Left 0
SYMATTR InstName R7
SYMATTR Value 20k
SYMBOL res -2144 -528 R0
SYMATTR InstName R8
SYMATTR Value 100k
SYMBOL res -2144 -352 R0
SYMATTR InstName R9
SYMATTR Value 100k
SYMBOL voltage -1872 -416 R90
WINDOW 0 -32 56 VBottom 0
WINDOW 3 32 56 VTop 0
SYMATTR InstName V1
SYMATTR Value 0.1
SYMBOL cap -1264 -592 R270
WINDOW 0 32 32 VTop 0
WINDOW 3 0 32 VBottom 0
SYMATTR InstName C2
SYMATTR Value .01µF
SYMBOL cap -1536 -400 R0
SYMATTR InstName C3
SYMATTR Value 1µF
SYMBOL schottky -1264 -224 R180
WINDOW 0 24 72 Left 0
WINDOW 3 24 0 Left 0
SYMATTR InstName D2
SYMATTR Value CMDSH2-3
SYMATTR Description Diode
SYMATTR Type diode
TEXT -928 392 Left 0 !.tran 1s
TEXT -1464 -672 Left 0 ;Opamp is LT1490A or LT1638
TEXT -704 72 Left 0 ;Opamp is LT1490A or LT1638
