Version 4
SHEET 1 3232 872
WIRE -784 -688 -1168 -688
WIRE -368 -688 -784 -688
WIRE -144 -688 -144 -704
WIRE -144 -688 -368 -688
WIRE -784 -672 -784 -688
WIRE -144 -656 -144 -688
WIRE -1168 -640 -1168 -688
WIRE -144 -544 -144 -576
WIRE -1168 -464 -1168 -560
WIRE -1104 -464 -1168 -464
WIRE -784 -464 -784 -592
WIRE -784 -464 -848 -464
WIRE -1104 -352 -1136 -352
WIRE -800 -352 -848 -352
WIRE -1136 -320 -1136 -352
WIRE -368 -240 -368 -688
WIRE -592 -192 -848 -192
WIRE -432 -192 -592 -192
WIRE -592 -176 -592 -192
WIRE -512 -176 -592 -176
WIRE -512 -160 -512 -176
WIRE -592 -112 -592 -176
WIRE -576 -112 -592 -112
WIRE -368 -80 -368 -144
WIRE -336 -80 -368 -80
WIRE -224 -80 -256 -80
WIRE -224 -48 -224 -80
WIRE 32 -48 -224 -48
WIRE -512 0 -512 -64
WIRE -448 0 -512 0
WIRE -224 0 -224 -48
WIRE -224 0 -368 0
WIRE 32 32 32 -48
WIRE 32 160 32 112
FLAG 32 160 0
FLAG -144 -544 0
FLAG -144 -704 V40
FLAG -1136 -320 0
FLAG -800 -352 V40
SYMBOL res 16 16 R0
SYMATTR InstName R1
SYMATTR Value 250
SYMBOL voltage -144 -672 R0
SYMATTR InstName V2
SYMATTR Value 40
SYMBOL opamps\\LTC6101 -976 -336 R0
SYMATTR InstName U3
SYMBOL res -768 -576 R180
WINDOW 0 36 76 Left 0
WINDOW 3 36 40 Left 0
SYMATTR InstName R4
SYMATTR Value 402
SYMBOL voltage -1168 -656 R0
WINDOW 123 0 0 Left 0
WINDOW 39 0 0 Left 0
SYMATTR InstName V3
SYMATTR Value PWL(0s 100mV 1s 100mV 1.0001s 400mV)
SYMBOL npn -432 -240 R0
SYMATTR InstName Q1
SYMATTR Value 2N3904
SYMBOL npn -576 -160 R0
SYMATTR InstName Q2
SYMATTR Value 2N3904
SYMBOL res -352 -16 R90
WINDOW 0 0 56 VBottom 0
WINDOW 3 32 56 VTop 0
SYMATTR InstName R2
SYMATTR Value 2k
SYMBOL res -352 -64 R270
WINDOW 0 32 56 VTop 0
WINDOW 3 0 56 VBottom 0
SYMATTR InstName R5
SYMATTR Value 100
TEXT -1120 -8 Left 0 !.tran 0 5s 0 1ms
