Version 4
SHEET 1 3232 872
WIRE -384 -688 -784 -688
WIRE -272 -688 -384 -688
WIRE -144 -688 -144 -704
WIRE -144 -688 -272 -688
WIRE -784 -672 -784 -688
WIRE -272 -672 -272 -688
WIRE -144 -656 -144 -688
WIRE -272 -560 -272 -592
WIRE -272 -560 -1168 -560
WIRE -144 -544 -144 -576
WIRE -384 -512 -384 -688
WIRE -1168 -464 -1168 -560
WIRE -1104 -464 -1168 -464
WIRE -784 -464 -784 -592
WIRE -784 -464 -848 -464
WIRE -272 -400 -272 -560
WIRE -384 -384 -384 -432
WIRE -320 -384 -384 -384
WIRE -1104 -352 -1136 -352
WIRE -800 -352 -848 -352
WIRE -1136 -320 -1136 -352
WIRE -384 -288 -384 -384
WIRE -272 -272 -272 -304
WIRE -544 -224 -576 -224
WIRE -464 -224 -480 -224
WIRE -784 -192 -848 -192
WIRE -272 -176 -272 -208
WIRE 48 -176 -272 -176
WIRE -1280 -128 -1344 -128
WIRE -688 -128 -1280 -128
WIRE -576 -128 -576 -224
WIRE -576 -128 -608 -128
WIRE -464 -128 -464 -224
WIRE -384 -128 -384 -208
WIRE -384 -128 -464 -128
WIRE -528 -112 -528 -128
WIRE 48 -112 48 -176
WIRE -576 -96 -576 -128
WIRE -560 -96 -576 -96
WIRE -464 -80 -464 -128
WIRE -464 -80 -496 -80
WIRE -784 -64 -784 -192
WIRE -672 -64 -784 -64
WIRE -560 -64 -672 -64
WIRE -1280 -32 -1280 -128
WIRE -784 -32 -784 -64
WIRE -672 -16 -672 -64
WIRE -528 -16 -528 -48
WIRE 48 16 48 -32
WIRE -784 80 -784 48
WIRE -672 80 -672 48
WIRE -1280 96 -1280 48
FLAG 48 16 0
FLAG -144 -544 0
FLAG -528 -16 0
FLAG -144 -704 V24
FLAG -528 -128 V24
FLAG -1136 -320 0
FLAG -800 -352 V24
FLAG -784 80 0
FLAG -672 80 0
FLAG -1280 96 0
SYMBOL opamps\\UniversalOpamp -528 -80 R0
SYMATTR InstName U1
SYMBOL res 32 -128 R0
SYMATTR InstName R1
SYMATTR Value 250
SYMBOL voltage -144 -672 R0
SYMATTR InstName V2
SYMATTR Value 24
SYMBOL res -592 -144 R90
WINDOW 0 0 56 VBottom 0
WINDOW 3 32 56 VTop 0
SYMATTR InstName R5
SYMATTR Value 10k
SYMBOL res -288 -688 R0
SYMATTR InstName R2
SYMATTR Value 10
SYMBOL opamps\\LTC6101 -976 -336 R0
SYMATTR InstName U3
SYMBOL res -800 -48 R0
SYMATTR InstName R3
SYMATTR Value 10k
SYMBOL cap -544 -208 R270
WINDOW 0 32 32 VTop 0
WINDOW 3 0 32 VBottom 0
SYMATTR InstName C1
SYMATTR Value 0.01µF
SYMBOL res -768 -576 R180
WINDOW 0 36 76 Left 0
WINDOW 3 36 40 Left 0
SYMATTR InstName R4
SYMATTR Value 402
SYMBOL pmos -320 -304 M180
SYMATTR InstName M1
SYMATTR Value BSS84
SYMBOL cap -688 -16 R0
SYMATTR InstName C2
SYMATTR Value 0.01µF
SYMBOL voltage -1280 -48 R0
WINDOW 123 0 0 Left 0
WINDOW 39 0 0 Left 0
SYMATTR InstName V1
SYMATTR Value PWL(0s 1V 1s 1V 5s 5V)
SYMBOL diode -288 -272 R0
SYMATTR InstName D1
SYMATTR Value 1N4148
SYMBOL res -400 -304 R0
SYMATTR InstName R6
SYMATTR Value 10k
SYMBOL res -400 -528 R0
SYMATTR InstName R7
SYMATTR Value 2k
TEXT -1080 264 Left 0 !.tran 5s
TEXT -544 32 Left 0 ;LT1490
