Version 4
SHEET 1 3232 872
WIRE -96 -368 -448 -368
WIRE -96 -320 -96 -368
WIRE -992 -304 -1024 -304
WIRE -832 -304 -912 -304
WIRE -608 -208 -912 -208
WIRE -448 -208 -448 -368
WIRE -448 -208 -608 -208
WIRE -384 -208 -448 -208
WIRE -96 -208 -96 -240
WIRE -912 -160 -912 -208
WIRE -608 -160 -608 -208
WIRE -384 -160 -384 -208
WIRE -1024 -144 -1024 -304
WIRE -944 -144 -1024 -144
WIRE -832 -128 -832 -304
WIRE -832 -128 -880 -128
WIRE -640 -112 -672 -112
WIRE -432 -80 -496 -80
WIRE -800 -48 -1040 -48
WIRE -640 -48 -720 -48
WIRE -912 16 -912 -96
WIRE -672 16 -672 -112
WIRE -672 16 -912 16
WIRE -608 16 -608 0
WIRE -608 16 -672 16
WIRE -560 16 -560 0
WIRE -560 16 -608 16
WIRE -384 16 -384 -64
WIRE -384 16 -560 16
WIRE -384 80 -384 16
WIRE -384 224 -384 160
WIRE -384 224 -1040 224
WIRE -240 224 -384 224
WIRE -96 224 -240 224
WIRE -240 240 -240 224
WIRE -240 368 -240 320
FLAG -240 368 0
FLAG -96 -208 0
SYMBOL res -256 224 R0
SYMATTR InstName R1
SYMATTR Value 250
SYMBOL Misc\\2N7002 -432 -160 R0
SYMATTR InstName U2
SYMBOL res -400 64 R0
SYMATTR InstName R2
SYMATTR Value 25
SYMBOL voltage -96 -336 R0
SYMATTR InstName V2
SYMATTR Value 24
SYMBOL res -704 -64 R90
WINDOW 0 0 56 VBottom 0
WINDOW 3 32 56 VTop 0
SYMATTR InstName R3
SYMATTR Value 1k
SYMBOL opamps\\LT1637 -608 -80 R0
SYMATTR InstName U1
SYMBOL opamps\\LTC1150 -912 -192 R0
SYMATTR InstName U3
SYMBOL res -896 -320 R90
WINDOW 0 0 56 VBottom 0
WINDOW 3 32 56 VTop 0
SYMATTR InstName R4
TEXT -928 392 Left 0 !.tran 0 20s 2s
