Version 4
SHEET 1 1380 1204
WIRE -512 240 -512 224
WIRE -512 336 -512 320
WIRE -64 368 -128 368
WIRE -16 368 -64 368
WIRE -16 448 -16 368
WIRE -432 496 -560 496
WIRE -240 496 -368 496
WIRE -16 608 -16 528
WIRE -16 608 -96 608
WIRE -464 624 -496 624
WIRE -416 624 -464 624
WIRE -96 640 -96 608
WIRE -416 672 -416 624
WIRE -800 720 -1088 720
WIRE -720 720 -800 720
WIRE -560 720 -560 496
WIRE -560 720 -640 720
WIRE -448 720 -560 720
WIRE -16 736 -16 608
WIRE -256 752 -304 752
WIRE -240 752 -240 496
WIRE -240 752 -256 752
WIRE -208 752 -240 752
WIRE -96 752 -96 720
WIRE -96 752 -128 752
WIRE -64 752 -96 752
WIRE -1232 768 -1232 720
WIRE -1088 768 -1088 720
WIRE -512 784 -560 784
WIRE -448 784 -512 784
WIRE -416 848 -416 832
WIRE -1232 864 -1232 848
WIRE -1088 864 -1088 848
WIRE -560 1008 -560 784
WIRE -464 1008 -560 1008
WIRE -320 1008 -384 1008
WIRE -240 1008 -320 1008
WIRE -16 1008 -16 832
WIRE -16 1008 -160 1008
WIRE 80 1008 -16 1008
WIRE 160 1008 80 1008
WIRE 224 1008 160 1008
WIRE 224 1040 224 1008
WIRE -560 1056 -560 1008
WIRE 80 1056 80 1008
WIRE 80 1152 80 1120
WIRE 224 1152 224 1120
WIRE 224 1152 80 1152
WIRE -560 1184 -560 1120
WIRE 80 1184 80 1152
FLAG -512 336 0
FLAG -512 224 V+
FLAG -416 848 0
FLAG -64 368 V+
FLAG -560 1184 0
FLAG 80 1184 0
FLAG -800 720 Vr
FLAG -1088 864 0
FLAG 160 1008 VOUT
FLAG -512 784 Vx
FLAG -256 752 Va
FLAG -464 624 V+
FLAG -1232 864 0
FLAG -320 1008 Ve
SYMBOL voltage -512 224 R0
WINDOW 123 0 0 Left 2
WINDOW 39 0 0 Left 2
SYMATTR InstName V1
SYMATTR Value 3.3
SYMBOL opamps\\LT1782 -416 752 R0
SYMATTR InstName U1
SYMBOL cap 64 1056 R0
SYMATTR InstName Cout
SYMATTR Value 10µ
SYMBOL cap -368 480 R90
WINDOW 0 0 32 VBottom 2
WINDOW 3 32 32 VTop 2
SYMATTR InstName C2
SYMATTR Value 220n
SYMBOL cap -576 1056 R0
SYMATTR InstName C3
SYMATTR Value 1p
SYMBOL res -32 432 R0
SYMATTR InstName R8
SYMATTR Value 10
SYMBOL pmos -64 832 M180
SYMATTR InstName M2
SYMATTR Value Si1013
SYMBOL res -112 736 R90
WINDOW 0 0 56 VBottom 2
WINDOW 3 32 56 VTop 2
SYMATTR InstName R4
SYMATTR Value 1K
SYMBOL res -368 992 R90
WINDOW 0 0 56 VBottom 2
WINDOW 3 32 56 VTop 2
SYMATTR InstName R9
SYMATTR Value 10K
SYMBOL res 208 1024 R0
SYMATTR InstName Rout
SYMATTR Value 1K
SYMBOL res -624 704 R90
WINDOW 0 0 56 VBottom 2
WINDOW 3 32 56 VTop 2
SYMATTR InstName R1
SYMATTR Value 10K
SYMBOL voltage -1088 752 R0
WINDOW 123 0 0 Left 2
WINDOW 39 0 0 Left 2
SYMATTR InstName V2
SYMATTR Value PULSE(1.5 2.5 5m 1u 1u 99 100)
SYMBOL voltage -1232 752 R0
WINDOW 123 0 0 Left 2
WINDOW 39 0 0 Left 2
SYMATTR InstName V3
SYMATTR Value 2.5
SYMBOL res -80 736 R180
WINDOW 0 36 76 Left 2
WINDOW 3 36 40 Left 2
SYMATTR InstName R5
SYMATTR Value 50K
SYMBOL voltage -256 1008 R270
WINDOW 123 24 68 Left 2
WINDOW 39 0 0 Left 2
SYMATTR Value2 AC .001
SYMATTR InstName V4
SYMATTR Value 0
TEXT -192 216 Left 2 !.tran .05\n;ac oct 250 10 1Meg
TEXT 96 304 Left 2 ;Open loop response: AC analysis and plot V(VOUT)/V(Ve)
TEXT -1328 1088 Left 2 ;C3 is a stability hazard.  It adds a pole (R9 and C3).
TEXT -1184 408 Left 2 ;C2 adds a pole at 0.  Combined with Cout, there are two poles at 0.\nR1 and C2 act as a zero in the system.\n220n seems reasonable for phase margin near 45 at light load.
TEXT 80 944 Left 2 ;Stability hazard at light load, high Rout.  Pole very low frequency.
