Version 4
SHEET 1 1240 760
WIRE 0 64 -64 64
WIRE 144 64 80 64
WIRE 256 64 144 64
WIRE 464 64 336 64
WIRE 544 64 464 64
WIRE 592 64 544 64
WIRE 272 176 272 144
WIRE 144 192 144 64
WIRE 240 192 144 192
WIRE 464 208 464 64
WIRE 464 208 304 208
WIRE 592 208 592 64
WIRE 720 208 592 208
WIRE 240 224 128 224
WIRE 720 240 720 208
WIRE 128 256 128 224
WIRE 592 256 592 208
WIRE -208 288 -208 240
WIRE 272 288 272 240
WIRE -384 304 -384 256
WIRE 128 336 128 256
WIRE 592 352 592 320
WIRE 720 352 720 320
WIRE -208 400 -208 368
WIRE -384 416 -384 384
WIRE 128 448 128 416
FLAG -384 416 0
FLAG -208 400 0
FLAG -384 256 +V
FLAG -208 240 -V
FLAG 272 144 +V
FLAG 272 288 -V
FLAG 592 352 0
FLAG 720 352 0
FLAG 128 448 0
FLAG 128 256 IN+
FLAG 544 64 OUT
FLAG -64 64 0
SYMBOL voltage -384 288 R0
SYMATTR InstName V1
SYMATTR Value {vs/2}
SYMBOL voltage -208 384 M180
WINDOW 0 24 96 Left 2
WINDOW 3 24 16 Left 2
WINDOW 123 0 0 Left 2
WINDOW 39 24 -12 Left 2
SYMATTR InstName V2
SYMATTR Value {vs/2}
SYMBOL cap 576 256 R0
SYMATTR InstName C1
SYMATTR Value {Cload}
SYMBOL res 704 224 R0
SYMATTR InstName R1
SYMATTR Value 10k
SYMBOL voltage 128 320 R0
WINDOW 123 24 124 Left 2
WINDOW 39 24 124 Left 2
SYMATTR Value2 AC 1
SYMATTR InstName V3
SYMATTR Value 0
SYMBOL res 352 48 R90
WINDOW 0 0 56 VBottom 2
WINDOW 3 32 56 VTop 2
SYMATTR InstName R2
SYMATTR Value 1 AC=1T
SYMBOL res 96 48 R90
WINDOW 0 0 56 VBottom 2
WINDOW 3 32 56 VTop 2
SYMATTR InstName R3
SYMATTR Value 1G AC=1
SYMBOL ADA4522_LOC 272 144 R0
SYMATTR InstName U1
TEXT 136 608 Left 2 ;.step param Cload list 1f 100p 300p
TEXT 144 536 Left 2 !.param Cload=50p
TEXT -304 488 Left 2 !.param vs=30
TEXT 512 560 Left 2 !.ac oct 8 100 100Meg
TEXT 496 472 Left 2 !.meas phasemargin find V(out) when mag(V(out))=1 cross=last
