Version 4
SHEET 1 1680 680
WIRE 560 -432 112 -432
WIRE 1104 -432 640 -432
WIRE 768 -160 608 -160
WIRE 1104 -160 1104 -432
WIRE 1104 -160 832 -160
WIRE 768 16 768 -16
WIRE 832 16 768 16
WIRE 768 32 768 16
WIRE 832 64 832 16
WIRE 352 128 352 64
WIRE 608 144 608 -160
WIRE 736 144 608 144
WIRE -496 160 -496 96
WIRE -272 160 -272 96
WIRE 112 176 112 -432
WIRE 272 176 112 176
WIRE 320 176 272 176
WIRE 1056 176 1008 176
WIRE 1104 176 1104 -160
WIRE 1104 176 1056 176
WIRE 528 208 464 208
WIRE 736 208 528 208
WIRE 272 240 224 240
WIRE 320 240 272 240
WIRE -496 256 -496 240
WIRE -384 256 -496 256
WIRE -272 256 -272 240
WIRE -160 256 -272 256
WIRE -496 272 -496 256
WIRE -272 272 -272 256
WIRE 112 272 112 176
WIRE 224 272 224 240
WIRE 608 272 608 144
WIRE -384 288 -384 256
WIRE -160 288 -160 256
WIRE 608 352 608 272
WIRE 352 368 352 288
WIRE 400 368 400 288
WIRE 832 368 832 288
WIRE 112 384 112 352
WIRE 224 384 224 352
WIRE -496 400 -496 352
WIRE -272 400 -272 352
WIRE 768 400 768 320
WIRE 608 464 608 432
WIRE 608 592 608 544
FLAG -272 96 Vcc
FLAG -272 400 Vee
FLAG -160 288 0
FLAG 352 368 Vee
FLAG 352 64 Vcc
FLAG 400 368 Vcc
FLAG 224 384 0
FLAG 112 384 0
FLAG 608 592 0
FLAG -496 96 Vcc2
FLAG -496 400 Vee2
FLAG -384 288 0
FLAG 768 400 Vee2
FLAG 768 -16 Vcc2
FLAG 832 368 0
FLAG 272 240 VINp
FLAG 272 176 VINm
FLAG 528 208 VOUT
FLAG 1056 176 Output
FLAG 608 272 Vcontrol
SYMBOL Opamps\\LTC6268-10 352 208 R0
SYMATTR InstName U1
SYMBOL voltage -272 144 R0
WINDOW 123 0 0 Left 2
WINDOW 39 0 0 Left 2
SYMATTR InstName V1
SYMATTR Value 1.65
SYMBOL voltage -272 256 R0
WINDOW 123 0 0 Left 2
WINDOW 39 0 0 Left 2
SYMATTR InstName V2
SYMATTR Value 1.65
SYMBOL res 208 256 R0
SYMATTR InstName R1
SYMATTR Value 100
SYMBOL res 96 256 R0
SYMATTR InstName R2
SYMATTR Value 100
SYMBOL res 656 -448 R90
WINDOW 0 0 56 VBottom 2
WINDOW 3 32 56 VTop 2
SYMATTR InstName R3
SYMATTR Value 10K
SYMBOL Opamps\\LTC2057 896 176 R0
SYMATTR InstName U2
SYMBOL res 592 336 R0
SYMATTR InstName R4
SYMATTR Value 100K
SYMBOL voltage 608 448 R0
WINDOW 123 0 0 Left 2
WINDOW 39 0 0 Left 2
SYMATTR InstName V3
SYMATTR Value PULSE(-1.15 1.15 .1 1m 1m .1 .2)
SYMBOL voltage -496 144 R0
WINDOW 123 0 0 Left 2
WINDOW 39 0 0 Left 2
SYMATTR InstName V4
SYMATTR Value 5
SYMBOL voltage -496 256 R0
WINDOW 123 0 0 Left 2
WINDOW 39 0 0 Left 2
SYMATTR InstName V5
SYMATTR Value 5
SYMBOL cap 832 -176 R90
WINDOW 0 0 32 VBottom 2
WINDOW 3 32 32 VTop 2
SYMATTR InstName C1
SYMATTR Value 1n
TEXT -96 -8 Left 2 !.tran 1
TEXT -248 -336 Left 2 ;Plot V(Vout)/V(VINp,VINm)
TEXT 928 344 Left 2 ;The second op amp works in a loop to force\nthe DUT output voltage to a known voltage.
TEXT 400 56 Left 2 ;DUT
TEXT 1200 176 Left 2 ;Plot -Vcontrol / V(Output) * (10K+100) / 100
