Version 4
SHEET 1 2268 2292
WIRE -464 272 -608 272
WIRE -400 272 -464 272
WIRE -320 272 -320 208
WIRE -320 272 -336 272
WIRE -224 272 -320 272
WIRE 112 272 -144 272
WIRE 400 272 112 272
WIRE 672 272 672 224
WIRE 672 272 480 272
WIRE -608 368 -608 272
WIRE 112 384 112 272
WIRE 224 384 112 384
WIRE 672 400 672 272
WIRE 160 448 160 416
WIRE 400 448 400 432
WIRE 160 464 160 448
WIRE 224 464 160 464
WIRE 400 480 400 448
WIRE 160 496 160 464
WIRE 368 496 336 496
WIRE 112 512 112 384
WIRE 144 512 112 512
WIRE 560 512 432 512
WIRE 672 512 672 480
WIRE 672 512 560 512
WIRE 720 512 672 512
WIRE 848 512 784 512
WIRE 944 512 848 512
WIRE -224 528 -224 480
WIRE 304 528 304 384
WIRE 304 528 208 528
WIRE 368 528 304 528
WIRE -608 544 -608 448
WIRE 144 544 112 544
WIRE 944 544 944 512
WIRE 224 560 224 464
WIRE 224 560 192 560
WIRE -224 576 -224 528
WIRE 400 576 400 544
WIRE 160 592 160 560
WIRE 400 592 400 576
WIRE -368 624 -400 624
WIRE -400 640 -400 624
WIRE 944 656 944 624
WIRE -560 672 -560 640
WIRE -224 672 -224 656
WIRE -64 672 -224 672
WIRE -16 672 -64 672
WIRE 112 672 112 544
WIRE 112 672 -16 672
WIRE 336 672 336 496
WIRE 336 672 112 672
WIRE -560 688 -560 672
WIRE -448 688 -448 656
WIRE -368 688 -368 624
WIRE -64 704 -64 672
WIRE -224 720 -224 672
WIRE -560 784 -560 768
WIRE -448 784 -448 768
WIRE -368 784 -368 768
WIRE -224 816 -224 800
WIRE -64 816 -64 768
WIRE -64 816 -224 816
WIRE -224 832 -224 816
FLAG -448 784 0
FLAG -448 656 Vpos
FLAG -400 640 0
FLAG -368 784 Vneg
FLAG -608 544 0
FLAG 848 512 Vout
FLAG -560 784 0
FLAG -560 672 Vcc
FLAG 672 224 Ve
FLAG 304 528 Vmid
FLAG 400 448 Vpos
FLAG 400 576 Vneg
FLAG 160 448 Vcc
FLAG -224 528 Vcc
FLAG -224 832 0
FLAG 944 656 0
FLAG 160 592 0
FLAG 560 512 V2
FLAG -464 272 Vin
FLAG -16 672 Vr
SYMBOL voltage -448 672 R0
WINDOW 123 0 0 Left 2
WINDOW 39 0 0 Left 2
SYMATTR InstName V1
SYMATTR Value 15
SYMBOL voltage -368 672 R0
WINDOW 123 0 0 Left 2
WINDOW 39 0 0 Left 2
SYMATTR InstName V2
SYMATTR Value 15
SYMBOL res 384 288 R270
WINDOW 0 32 56 VTop 2
WINDOW 3 0 56 VBottom 2
SYMATTR InstName R4
SYMATTR Value 11K
SYMBOL voltage -608 352 R0
WINDOW 123 24 124 Left 2
WINDOW 39 0 0 Left 2
SYMATTR Value2 AC 0
SYMATTR InstName V3
SYMATTR Value SINE(0 1 100K 1n 1n 5u)
SYMBOL voltage -560 672 R0
WINDOW 123 0 0 Left 2
WINDOW 39 0 0 Left 2
SYMATTR InstName V5
SYMATTR Value 5
SYMBOL voltage 672 384 R0
WINDOW 123 24 44 Left 2
WINDOW 39 0 0 Left 2
WINDOW 3 24 72 Left 2
SYMATTR Value2 AC 1m
SYMATTR Value PULSE(0 .001 250m 1n 1n 250m 500m)
SYMATTR InstName V4
SYMBOL cap -48 768 R180
WINDOW 0 24 56 Left 2
WINDOW 3 24 8 Left 2
SYMATTR InstName C5
SYMATTR Value 1u
SYMATTR SpiceLine V=10 Irms=10.541 Rser=0.004 Lser=0
SYMBOL Opamps\\UniversalOpamp2 400 512 R0
WINDOW 123 122 230 Left 2
WINDOW 40 95 192 Left 2
SYMATTR Value2 Avol=1000000 GBW=50Meg Slew=1000Meg
SYMATTR SpiceLine2 en=1.2n enk=10 in=3.75p ink=30 Rin=500Meg
SYMATTR InstName U1
SYMATTR SpiceLine ilimit=100m rail=0 Vos=0 phimargin=45
SYMBOL res -240 704 R0
SYMATTR InstName R1a
SYMATTR Value 10K
SYMBOL res -240 560 R0
SYMATTR InstName R1b
SYMATTR Value 10K
SYMBOL res -240 288 R270
WINDOW 0 32 56 VTop 2
WINDOW 3 0 56 VBottom 2
SYMATTR InstName R1
SYMATTR Value 1K
SYMBOL cap -336 256 R90
WINDOW 0 0 32 VBottom 2
WINDOW 3 32 32 VTop 2
WINDOW 123 60 32 VTop 2
SYMATTR InstName C1
SYMATTR Value 1u
SYMATTR SpiceLine V=10 Irms=10.541 Rser=0.004 Lser=0
SYMBOL cap 784 496 R90
WINDOW 0 0 32 VBottom 2
WINDOW 3 32 32 VTop 2
WINDOW 123 60 32 VTop 2
SYMATTR InstName C2
SYMATTR Value 1u
SYMATTR SpiceLine V=10 Irms=10.541 Rser=0.004 Lser=0
SYMBOL res 928 528 R0
SYMATTR InstName R3
SYMATTR Value 10K
SYMBOL opamps\\LTC6252 176 528 R0
SYMATTR InstName U3
SYMBOL res 320 368 R90
WINDOW 0 0 56 VBottom 2
WINDOW 3 32 56 VTop 2
SYMATTR InstName R2
SYMATTR Value 1k
TEXT -168 360 Left 2 !.tran 100u
TEXT -152 112 Left 2 ;Use a 6252 at 5V to gain up a small sine wave.\nUse a 6275 second stage to provide the boosting.
TEXT 184 720 Left 2 ;6252
TEXT 416 720 Left 2 ;6275
TEXT -216 472 Left 2 !;ac oct 250 10 1000Meg
TEXT 560 824 Left 2 !.nodeset V(Vout) =0
