Version 4
SHEET 1 880 792
WIRE -160 144 -352 144
WIRE -64 144 -160 144
WIRE 32 144 -64 144
WIRE 416 144 320 144
WIRE 480 144 416 144
WIRE 704 144 480 144
WIRE -352 176 -352 144
WIRE -160 208 -160 144
WIRE 704 224 704 144
WIRE -64 240 -64 144
WIRE 32 240 -64 240
WIRE 416 240 416 144
WIRE 416 240 320 240
WIRE -160 416 -160 272
WIRE 176 416 176 304
WIRE 176 416 -160 416
WIRE 480 416 480 224
WIRE 480 416 176 416
WIRE 704 416 704 288
WIRE 704 416 480 416
WIRE 176 544 176 416
WIRE -352 752 -352 256
WIRE 176 752 176 624
FLAG -352 752 0
FLAG 176 752 0
SYMBOL voltage -352 160 R0
WINDOW 123 0 0 Left 2
WINDOW 39 0 0 Left 2
SYMATTR InstName V1
SYMATTR Value 12
SYMBOL PowerProducts\\LT3007-1.2 176 192 R0
SYMATTR InstName U2
SYMBOL res 464 128 R0
SYMATTR InstName R1
SYMATTR Value 600
SYMBOL voltage 176 528 R0
WINDOW 123 0 0 Left 2
WINDOW 39 0 0 Left 2
SYMATTR InstName V2
SYMATTR Value 10
SYMBOL cap -176 208 R0
SYMATTR InstName C1
SYMATTR Value 1µ
SYMBOL cap 688 224 R0
SYMATTR InstName C2
SYMATTR Value 2.2µ
TEXT 174 16 Left 2 !.tran 10m
