Version 4
SHEET 1 2044 1204
WIRE 656 0 304 0
WIRE 1744 16 1392 16
WIRE 304 96 304 0
WIRE 320 96 304 96
WIRE 656 96 656 0
WIRE 656 96 608 96
WIRE 752 96 656 96
WIRE 848 96 752 96
WIRE 656 112 656 96
WIRE 752 112 752 96
WIRE 1392 112 1392 16
WIRE 1440 112 1392 112
WIRE 1744 112 1744 16
WIRE 1744 112 1664 112
WIRE 1840 112 1744 112
WIRE 1936 112 1840 112
WIRE 848 128 848 96
WIRE 1744 128 1744 112
WIRE 1840 128 1840 112
WIRE 1936 144 1936 112
WIRE 304 208 304 96
WIRE 320 208 304 208
WIRE 112 272 32 272
WIRE 464 272 464 256
WIRE 464 272 192 272
WIRE 656 272 656 176
WIRE 656 272 464 272
WIRE 752 272 752 192
WIRE 752 272 656 272
WIRE 816 272 752 272
WIRE 1200 288 1120 288
WIRE 1552 288 1552 176
WIRE 1552 288 1280 288
WIRE 1744 288 1744 192
WIRE 1744 288 1552 288
WIRE 1840 288 1840 208
WIRE 1840 288 1744 288
WIRE 1904 288 1840 288
WIRE 32 352 32 272
WIRE 32 368 32 352
WIRE 1120 368 1120 288
WIRE 1120 384 1120 368
WIRE 32 464 32 448
FLAG 32 464 0
FLAG 816 272 -2.5Vout_A
FLAG 32 352 -3.3V
FLAG 848 128 0
FLAG 1904 288 -2.5Vout_B
FLAG 1120 368 -3.3V
FLAG 1936 144 0
SYMBOL cap 640 112 R0
SYMATTR InstName C1
SYMATTR Value 1µ
SYMATTR SpiceLine Rser=10m
SYMBOL voltage 32 352 R0
WINDOW 123 0 0 Left 2
WINDOW 39 24 124 Left 2
SYMATTR InstName V1
SYMATTR Value -3.3
SYMBOL res 736 96 R0
SYMATTR InstName R1
SYMATTR Value 250
SYMBOL LT6657-2.5 464 128 R0
WINDOW 0 0 -48 Center 2
WINDOW 3 0 48 Center 2
SYMATTR InstName U1
SYMBOL res 208 256 R90
WINDOW 0 0 56 VBottom 2
WINDOW 3 32 56 VTop 2
SYMATTR InstName R2
SYMATTR Value 50
SYMBOL cap 1728 128 R0
SYMATTR InstName C3
SYMATTR Value 1µ
SYMATTR SpiceLine Rser=10m
SYMBOL res 1824 112 R0
SYMATTR InstName R5
SYMATTR Value 250
SYMBOL res 1296 272 R90
WINDOW 0 0 56 VBottom 2
WINDOW 3 32 56 VTop 2
SYMATTR InstName R6
SYMATTR Value 50
TEXT 672 904 Left 2 !.tran 10m
