Version 4
SHEET 1 3232 872
WIRE 1088 -288 1088 -320
WIRE 736 -272 736 -304
WIRE 736 -272 624 -272
WIRE 864 -272 736 -272
WIRE 624 -192 624 -272
WIRE 96 -176 64 -176
WIRE 224 -176 176 -176
WIRE 864 -176 864 -272
WIRE 1088 -144 1088 -208
WIRE 272 -32 240 -32
WIRE 272 -16 272 -32
WIRE 80 16 80 -16
WIRE 864 16 864 -96
WIRE 864 16 496 16
WIRE 240 32 240 -32
WIRE 352 48 272 48
WIRE 496 48 496 16
WIRE 496 48 352 48
WIRE 176 64 144 64
WIRE 208 64 176 64
WIRE 864 64 864 16
WIRE 304 80 272 80
WIRE 496 80 304 80
WIRE 352 112 352 48
WIRE 496 112 496 80
WIRE 512 112 496 112
WIRE 624 112 624 -112
WIRE 624 112 592 112
WIRE 800 112 624 112
WIRE 80 160 80 112
WIRE 80 176 80 160
WIRE 624 176 624 112
WIRE 352 192 352 176
WIRE 864 192 864 160
WIRE 176 208 176 64
WIRE 208 208 176 208
WIRE 304 208 304 80
WIRE 304 208 272 208
WIRE 80 288 80 256
WIRE 624 288 624 256
WIRE 736 288 624 288
WIRE 864 288 864 272
WIRE 864 288 736 288
WIRE 736 336 736 288
FLAG 224 -176 0
FLAG 64 -176 p12v
FLAG 736 336 0
FLAG 240 96 p12v
FLAG 272 -16 0
FLAG 80 288 0
FLAG 80 160 pw
FLAG 1088 -320 p7v
FLAG 1088 -144 0
FLAG 736 -304 p7v
FLAG 80 -16 p12v
FLAG 352 192 0
SYMBOL voltage 80 -176 R270
WINDOW 0 32 56 VTop 2
WINDOW 3 -32 56 VBottom 2
SYMATTR InstName V2
SYMATTR Value 12
SYMBOL npn 800 64 R0
SYMATTR InstName Q1
SYMATTR Value 2N3904
SYMBOL res 848 -192 R0
SYMATTR InstName R3
SYMATTR Value 70k
SYMBOL res 608 160 R0
SYMATTR InstName R4
SYMATTR Value 1k
SYMBOL res 608 -208 R0
SYMATTR InstName R6
SYMATTR Value 13k
SYMBOL opamps\\LT1013 240 128 R180
SYMATTR InstName U2
SYMBOL res 64 160 R0
SYMATTR InstName R1
SYMATTR Value 300
SYMBOL Misc\\Epoly 864 288 R180
WINDOW 0 24 104 Left 2
WINDOW 3 -293 -21 Left 2
SYMATTR InstName E1
SYMATTR Value VALUE={((V(pw)*V(pw))/300)*400*.002}
SYMBOL voltage 1088 -304 R0
SYMATTR InstName V1
SYMATTR Value 7
SYMBOL npn 144 16 M0
SYMATTR InstName Q2
SYMATTR Value 2N3904
SYMBOL cap 336 112 R0
SYMATTR InstName C1
SYMATTR Value 0.1uF
SYMBOL res 608 96 R90
WINDOW 0 0 56 VBottom 2
WINDOW 3 32 56 VTop 2
SYMATTR InstName R2
SYMATTR Value 10k
SYMBOL cap 272 192 R90
WINDOW 0 0 32 VBottom 2
WINDOW 3 32 32 VTop 2
SYMATTR InstName C2
SYMATTR Value 0.1uF
TEXT 400 -328 Left 2 !.tran 0.1s
