Version 4
SHEET 1 3232 872
WIRE 1072 -304 752 -304
WIRE 1296 -304 1136 -304
WIRE 192 -224 -48 -224
WIRE 624 -224 192 -224
WIRE 752 -224 752 -304
WIRE 752 -224 624 -224
WIRE 864 -224 752 -224
WIRE 1568 -224 864 -224
WIRE 624 -192 624 -224
WIRE 864 -176 864 -224
WIRE -48 -112 -48 -224
WIRE 624 -112 624 -128
WIRE 192 -96 192 -224
WIRE -432 -80 -464 -80
WIRE -304 -80 -352 -80
WIRE 1184 -32 1120 -32
WIRE 624 -16 624 -32
WIRE 704 -16 624 -16
WIRE 1120 -16 1120 -32
WIRE 624 0 624 -16
WIRE 1568 0 1568 -224
WIRE 1616 0 1568 0
WIRE 1184 16 1184 -32
WIRE 864 32 864 -96
WIRE 992 32 864 32
WIRE 1152 32 992 32
WIRE -400 48 -432 48
WIRE 1296 48 1296 -304
WIRE 1296 48 1216 48
WIRE -400 64 -400 48
WIRE 864 64 864 32
WIRE 992 64 992 32
WIRE 1152 64 1088 64
WIRE -592 96 -592 64
WIRE 192 96 192 -16
WIRE 192 96 -176 96
WIRE 1184 96 1184 80
WIRE 1616 96 1568 96
WIRE -432 112 -432 48
WIRE 704 112 704 -16
WIRE 752 112 704 112
WIRE 800 112 752 112
WIRE -320 128 -400 128
WIRE -176 128 -176 96
WIRE -176 128 -320 128
WIRE -496 144 -528 144
WIRE -464 144 -496 144
WIRE 192 144 192 96
WIRE 624 144 624 80
WIRE -368 160 -400 160
WIRE -176 160 -368 160
WIRE 992 160 992 128
WIRE 1088 160 1088 64
WIRE 1248 160 1088 160
WIRE 624 176 624 144
WIRE 1136 176 1088 176
WIRE -320 192 -320 128
WIRE -176 192 -176 160
WIRE -160 192 -176 192
WIRE -48 192 -48 -32
WIRE -48 192 -80 192
WIRE 128 192 -48 192
WIRE 752 208 752 112
WIRE 1088 208 1088 176
WIRE 1088 208 752 208
WIRE -592 240 -592 192
WIRE 864 240 864 160
WIRE -592 256 -592 240
WIRE -48 256 -48 192
WIRE 192 256 192 240
WIRE 224 256 192 256
WIRE 816 256 800 256
WIRE -320 272 -320 256
WIRE 192 272 192 256
WIRE -496 288 -496 144
WIRE -464 288 -496 288
WIRE -368 288 -368 160
WIRE -368 288 -400 288
WIRE 1136 288 1136 176
WIRE 1152 288 1136 288
WIRE 1248 288 1248 160
WIRE 1248 288 1232 288
WIRE 816 304 800 304
WIRE 800 320 800 304
WIRE 864 320 800 320
WIRE 864 336 864 320
WIRE 1568 336 1568 96
WIRE 1568 336 864 336
WIRE -592 368 -592 336
WIRE -48 368 -48 336
WIRE 16 368 -48 368
WIRE 192 368 192 352
WIRE 192 368 16 368
WIRE 624 368 624 256
WIRE 864 368 864 336
WIRE 864 368 624 368
WIRE 16 416 16 368
WIRE 864 416 864 368
FLAG 1184 96 p12v
FLAG 992 160 0
FLAG 864 416 0
FLAG 1120 -16 0
FLAG 1616 0 Vref_out
FLAG 624 144 pin4
FLAG -304 -80 0
FLAG -464 -80 p12v
FLAG 16 416 0
FLAG -432 176 p12v
FLAG -400 64 0
FLAG -592 368 0
FLAG -592 240 pw
FLAG -592 64 p12v
FLAG -320 272 0
FLAG 224 256 Vbe_Temp
FLAG 800 256 Vbe_Temp
SYMBOL zener 640 -128 R180
WINDOW 0 24 72 Left 2
WINDOW 3 24 0 Left 2
SYMATTR InstName D1
SYMATTR Value BZX84C6V2L
SYMATTR Description Diode
SYMATTR Type diode
SYMBOL npn 800 64 R0
SYMATTR InstName Q1
SYMATTR Value 2N3904
SYMBOL res 848 -192 R0
SYMATTR InstName R3
SYMATTR Value 70000
SYMBOL res 608 160 R0
SYMATTR InstName R4
SYMATTR Value 120
SYMBOL res 608 -128 R0
SYMATTR InstName R6
SYMATTR Value 30
SYMBOL opamps\\LT1013 1184 112 M180
SYMATTR InstName U1
SYMBOL cap 976 64 R0
SYMATTR InstName C1
SYMATTR Value .02u
SYMBOL diode 1136 -320 R90
WINDOW 0 0 32 VBottom 2
WINDOW 3 32 32 VTop 2
SYMATTR InstName D2
SYMATTR Value 1N4148
SYMBOL voltage -448 -80 R270
WINDOW 0 32 56 VTop 2
WINDOW 3 -32 56 VBottom 2
SYMATTR InstName V1
SYMATTR Value 12
SYMBOL npn 128 144 R0
SYMATTR InstName Q2
SYMATTR Value 2N3904
SYMBOL res 176 -112 R0
SYMATTR InstName R1
SYMATTR Value 70000
SYMBOL res -64 240 R0
SYMATTR InstName R2
SYMATTR Value 1k
SYMBOL res -64 -128 R0
SYMATTR InstName R7
SYMATTR Value 13k
SYMBOL opamps\\LT1013 -432 208 R180
SYMATTR InstName U2
SYMBOL res -608 240 R0
SYMATTR InstName R8
SYMATTR Value 300
SYMBOL Misc\\Epoly 192 368 R180
WINDOW 0 24 104 Left 2
WINDOW 3 -262 -22 Left 2
SYMATTR InstName E1
SYMATTR Value VALUE={((V(pw)*V(pw))/300)*400*.002}
SYMBOL npn -528 96 M0
SYMATTR InstName Q3
SYMATTR Value 2N3904
SYMBOL cap -336 192 R0
SYMATTR InstName C2
SYMATTR Value 0.1uF
SYMBOL res -64 176 R90
WINDOW 0 0 56 VBottom 2
WINDOW 3 32 56 VTop 2
SYMATTR InstName R9
SYMATTR Value 10k
SYMBOL cap -400 272 R90
WINDOW 0 0 32 VBottom 2
WINDOW 3 32 32 VTop 2
SYMATTR InstName C3
SYMATTR Value 0.1uF
SYMBOL e 864 224 R0
SYMATTR InstName E2
SYMATTR Value 1
SYMBOL res 608 -16 R0
SYMATTR InstName R5
SYMATTR Value 10
SYMBOL voltage 1248 288 R90
WINDOW 3 -47 -202 VRight 2
WINDOW 123 0 0 Left 2
WINDOW 39 0 0 Left 2
SYMATTR InstName V2
SYMATTR Value PULSE(0V 10mV 10us 1ns 1ns 1ms 2ms)
TEXT -544 -224 Left 2 !.tran 0.01s
TEXT 576 0 Left 2 ;Rz
