Version 4
SHEET 1 3024 1812
WIRE 1712 1168 1616 1168
WIRE 1792 1168 1712 1168
WIRE 1920 1168 1792 1168
WIRE 1968 1168 1920 1168
WIRE 2080 1168 2048 1168
WIRE 2128 1168 2080 1168
WIRE 2240 1168 2192 1168
WIRE 2416 1168 2240 1168
WIRE 2528 1168 2416 1168
WIRE 2656 1168 2528 1168
WIRE 1616 1184 1616 1168
WIRE 1712 1184 1712 1168
WIRE 2528 1184 2528 1168
WIRE 2656 1184 2656 1168
WIRE 2416 1200 2416 1168
WIRE 2240 1216 2240 1168
WIRE 1920 1248 1920 1168
WIRE 2080 1248 2080 1168
WIRE 1616 1280 1616 1264
WIRE 1712 1280 1712 1248
WIRE 2528 1280 2528 1248
WIRE 2656 1280 2656 1264
WIRE 1792 1328 1792 1168
WIRE 1856 1328 1792 1328
WIRE 2240 1328 2240 1280
WIRE 2240 1328 2144 1328
WIRE 2416 1328 2416 1280
WIRE 2416 1328 2240 1328
WIRE 2416 1344 2416 1328
WIRE 1792 1408 1792 1328
WIRE 1856 1408 1792 1408
WIRE 2176 1408 2144 1408
WIRE 2192 1408 2176 1408
WIRE 2288 1408 2272 1408
WIRE 2368 1408 2352 1408
WIRE 2416 1440 2416 1424
WIRE 1792 1488 1792 1408
WIRE 1856 1488 1792 1488
WIRE 2208 1488 2144 1488
WIRE 2304 1488 2288 1488
WIRE 2000 1584 2000 1568
FLAG 2000 1584 0
FLAG 2368 1408 0
FLAG 2304 1488 0
FLAG 2416 1440 0
FLAG 1616 1280 0
FLAG 2528 1280 0
FLAG 2656 1280 0
FLAG 1712 1280 0
FLAG 2656 1168 OUT
FLAG 1616 1168 IN
FLAG 2176 1408 VC
SYMBOL LT1618 2000 1408 R0
SYMATTR InstName U1
SYMBOL ind 1952 1184 R270
WINDOW 0 32 56 VTop 2
WINDOW 3 5 56 VBottom 2
SYMATTR InstName L1
SYMATTR Value 10µ
SYMATTR SpiceLine Rpar=2K
SYMBOL schottky 2128 1184 R270
WINDOW 0 32 32 VTop 2
WINDOW 3 0 32 VBottom 2
SYMATTR InstName D1
SYMATTR Value MBRS360
SYMBOL RES 2400 1184 R0
SYMATTR InstName R1
SYMATTR Value 909K
SYMBOL res 2176 1424 R270
WINDOW 0 32 56 VTop 2
WINDOW 3 0 56 VBottom 2
SYMATTR InstName R3
SYMATTR Value 2K
SYMBOL res 2400 1328 R0
SYMATTR InstName R2
SYMATTR Value 107K
SYMBOL cap 2512 1184 R0
SYMATTR InstName C1
SYMATTR Value 1000µ
SYMATTR SpiceLine Rser=.05
SYMBOL cap 2288 1424 R270
WINDOW 0 32 32 VTop 2
WINDOW 3 0 32 VBottom 2
SYMATTR InstName C2
SYMATTR Value 5n
SYMBOL VOLTAGE 1616 1168 R0
SYMATTR InstName V1
SYMATTR Value 5
SYMBOL res 2192 1504 R270
WINDOW 0 32 56 VTop 2
WINDOW 3 0 56 VBottom 2
SYMATTR InstName R6
SYMATTR Value 13K
SYMBOL cap 1696 1184 R0
SYMATTR InstName C3
SYMATTR Value 4.7µ
SYMBOL cap 2224 1216 R0
SYMATTR InstName C5
SYMATTR Value 100p
SYMBOL load2 2656 1184 R0
WINDOW 0 22 -9 Left 2
WINDOW 3 21 76 Left 2
SYMATTR InstName Iload
SYMATTR Value 240m
TEXT 2368 1520 Left 2 !.tran 18m startup
TEXT 2368 1560 Left 2 ;.ic V(OUT) =11.5
TEXT 2368 1592 Left 2 ;.ic V(VC)=1.2
TEXT 1672 1632 Left 2 ;1.  Run simulation and note the time it takes for the output to get into regulation\n2.  Uncomment the initial condition on V(OUT)\n3.  Run the simulation again\n4.  Uncomment the initial condition on V(VC) along with V(OUT)\n5.  Run the simulation again\n6.  Notice that the output doesn't droop before rising like in the previous run
