Version 4
SHEET 1 948 680
WIRE 384 -160 336 -160
WIRE 528 -160 448 -160
WIRE -176 -128 -176 -144
WIRE 336 -64 336 -160
WIRE 336 -64 16 -64
WIRE 416 -64 336 -64
WIRE 528 -64 528 -160
WIRE 528 -64 496 -64
WIRE 576 -64 528 -64
WIRE -176 -32 -176 -48
WIRE 176 32 176 -16
WIRE -576 80 -688 80
WIRE -384 80 -576 80
WIRE 16 80 16 -64
WIRE 16 80 -288 80
WIRE 144 80 16 80
WIRE -576 96 -576 80
WIRE -384 112 -416 112
WIRE -256 112 -288 112
WIRE 576 112 576 -64
WIRE 576 112 288 112
WIRE 624 112 576 112
WIRE 640 112 624 112
WIRE -688 128 -688 80
WIRE -416 144 -416 112
WIRE -256 144 -256 112
WIRE -80 144 -96 144
WIRE 32 144 0 144
WIRE 80 144 32 144
WIRE 144 144 80 144
WIRE 32 176 32 144
WIRE 80 176 80 144
WIRE 224 208 224 192
WIRE 176 224 176 192
WIRE -688 256 -688 208
WIRE -624 256 -688 256
WIRE -576 256 -576 160
WIRE -576 256 -624 256
WIRE 32 288 32 256
WIRE 64 288 32 288
WIRE 80 288 80 240
WIRE 80 288 64 288
WIRE 64 320 64 288
WIRE -624 336 -624 256
FLAG -176 -32 0
FLAG 176 -16 +V
FLAG -176 -144 +V
FLAG -624 336 0
FLAG 624 112 vout
FLAG 176 224 0
FLAG -96 144 +V
FLAG 64 320 0
FLAG -416 144 0
FLAG -256 144 0
SYMBOL voltage -176 -144 R0
WINDOW 123 0 0 Left 2
WINDOW 39 0 0 Left 2
SYMATTR InstName V1
SYMATTR Value 5
SYMBOL res 512 -80 R90
WINDOW 0 0 56 VBottom 2
WINDOW 3 32 56 VTop 2
SYMATTR InstName R1
SYMATTR Value 1.82k
SYMBOL cap -592 96 R0
SYMATTR InstName C2
SYMATTR Value 9.5p
SYMBOL cap 384 -144 R270
WINDOW 0 32 32 VTop 2
WINDOW 3 0 32 VBottom 2
SYMATTR InstName C3
SYMATTR Value {Cf}
SYMBOL current -688 128 R0
WINDOW 123 24 108 Left 2
WINDOW 39 0 0 Left 2
WINDOW 3 -179 151 Left 2
SYMATTR Value2 AC 550u
SYMATTR Value PULSE(0uA 550uA 50ns 1ns 1ns 50ns 100n)
SYMATTR InstName I1
SYMBOL Opamps\\LTC6268-10 176 112 R0
SYMATTR InstName U2
SYMBOL res 16 128 R90
WINDOW 0 0 56 VBottom 2
WINDOW 3 32 56 VTop 2
SYMATTR InstName R2
SYMATTR Value 100k
SYMBOL res 48 272 R180
WINDOW 0 36 76 Left 2
WINDOW 3 36 40 Left 2
SYMATTR InstName R3
SYMATTR Value 10k
SYMBOL cap 64 176 R0
SYMATTR InstName C1
SYMATTR Value 0.1µ
SYMBOL tline -336 96 R0
SYMATTR InstName T1
SYMATTR Value Td=0.2n Z0={Zz}
TEXT 304 312 Left 2 !.ac dec 200 100k 3000Meg
TEXT 304 280 Left 2 !;tran 200ns
TEXT 304 344 Left 2 !;noise v(vout) I1 oct 100 10k 300Meg
TEXT -208 184 Left 2 ;PMT
TEXT 296 224 Left 2 !.step param Cf list .2p  .4p .8p 1p
TEXT 536 256 Left 2 ;.param Cf 0.2p
TEXT 304 416 Left 2 !.step param Zz list 50 70 90 110 130 150 170 200
