Version 4
SHEET 1 1280 1172
WIRE 384 -160 336 -160
WIRE 528 -160 448 -160
WIRE 336 -64 336 -160
WIRE 336 -64 16 -64
WIRE 416 -64 336 -64
WIRE 528 -64 528 -160
WIRE 528 -64 496 -64
WIRE 576 -64 528 -64
WIRE -304 -48 -304 -96
WIRE 176 32 176 -16
WIRE -304 80 -304 16
WIRE -304 80 -464 80
WIRE 16 80 16 -64
WIRE 16 80 -304 80
WIRE 144 80 16 80
WIRE -464 96 -464 80
WIRE 576 112 576 -64
WIRE 576 112 288 112
WIRE 624 112 576 112
WIRE 640 112 624 112
WIRE -304 128 -304 80
WIRE 144 144 16 144
WIRE 224 208 224 192
WIRE -464 240 -464 176
WIRE -304 240 -304 192
WIRE -304 240 -464 240
WIRE -752 256 -752 240
WIRE -304 256 -304 240
WIRE 176 288 176 192
WIRE 16 336 16 144
WIRE -752 352 -752 336
WIRE 16 352 16 336
WIRE 16 448 16 432
WIRE 384 544 336 544
WIRE 528 544 448 544
WIRE 336 640 336 544
WIRE 336 640 16 640
WIRE 416 640 336 640
WIRE 528 640 528 544
WIRE 528 640 496 640
WIRE 576 640 528 640
WIRE -304 656 -304 608
WIRE 176 736 176 688
WIRE -304 784 -304 720
WIRE -304 784 -464 784
WIRE 16 784 16 640
WIRE 16 784 -304 784
WIRE 144 784 16 784
WIRE -464 800 -464 784
WIRE 576 816 576 640
WIRE 576 816 288 816
WIRE 624 816 576 816
WIRE 640 816 624 816
WIRE -304 832 -304 784
WIRE 144 848 16 848
WIRE 224 912 224 896
WIRE -464 944 -464 880
WIRE -304 944 -304 896
WIRE -304 944 -464 944
WIRE -304 960 -304 944
WIRE 176 992 176 896
WIRE 16 1040 16 848
WIRE 16 1056 16 1040
FLAG 176 -16 V+
FLAG 624 112 vout1
FLAG -752 352 0
FLAG -752 240 V+
FLAG 176 288 0
FLAG -304 -96 V+
FLAG 16 448 0
FLAG 16 336 Vref
FLAG -304 256 0
FLAG 176 688 V+
FLAG 624 816 vout2
FLAG 176 992 0
FLAG 16 1040 Vref
FLAG -304 944 VREF
FLAG -304 608 VREF
SYMBOL res 512 -80 R90
WINDOW 0 0 56 VBottom 2
WINDOW 3 32 56 VTop 2
SYMATTR InstName R1
SYMATTR Value 10Meg
SYMBOL cap 384 -144 R270
WINDOW 0 32 32 VTop 2
WINDOW 3 0 32 VBottom 2
SYMATTR InstName C3
SYMATTR Value 1p
SYMBOL voltage -752 240 R0
WINDOW 123 0 0 Left 2
WINDOW 39 0 0 Left 2
SYMATTR InstName V2
SYMATTR Value 5
SYMBOL current -464 96 R0
WINDOW 123 24 108 Left 2
WINDOW 39 0 0 Left 2
WINDOW 3 -179 151 Left 2
SYMATTR Value2 AC 100u
SYMATTR Value PULSE(1n -1n 50ns 1ns 1ns 100m 200m)
SYMATTR InstName I2
SYMBOL diode -288 192 R180
WINDOW 0 24 64 Left 2
WINDOW 3 24 0 Left 2
SYMATTR InstName D1
SYMATTR Value 1N4148
SYMBOL diode -288 16 R180
WINDOW 0 24 64 Left 2
WINDOW 3 24 0 Left 2
SYMATTR InstName D2
SYMATTR Value 1N4148
SYMBOL voltage 16 336 R0
WINDOW 123 0 0 Left 2
WINDOW 39 0 0 Left 2
SYMATTR InstName V3
SYMATTR Value 2.5
SYMBOL Opamps\\LTC6268 176 112 R0
SYMATTR InstName U1
SYMBOL res 512 624 R90
WINDOW 0 0 56 VBottom 2
WINDOW 3 32 56 VTop 2
SYMATTR InstName R2
SYMATTR Value 10Meg
SYMBOL cap 384 560 R270
WINDOW 0 32 32 VTop 2
WINDOW 3 0 32 VBottom 2
SYMATTR InstName C1
SYMATTR Value 1p
SYMBOL current -464 800 R0
WINDOW 123 24 108 Left 2
WINDOW 39 0 0 Left 2
WINDOW 3 -179 151 Left 2
SYMATTR Value2 AC 100u
SYMATTR Value PULSE(1n -1n 50ns 1ns 1ns 100m 200m)
SYMATTR InstName I1
SYMBOL diode -288 896 R180
WINDOW 0 24 64 Left 2
WINDOW 3 24 0 Left 2
SYMATTR InstName D3
SYMATTR Value 1N4148
SYMBOL diode -288 720 R180
WINDOW 0 24 64 Left 2
WINDOW 3 24 0 Left 2
SYMATTR InstName D4
SYMATTR Value 1N4148
SYMBOL Opamps\\LTC6268 176 816 R0
SYMATTR InstName U2
TEXT 480 240 Left 2 !;ac dec 200 100k 3000Meg
TEXT 480 200 Left 2 !.tran 1
TEXT 480 280 Left 2 !;noise v(vout) I1 oct 100 10k 300Meg
