Version 4
SHEET 1 948 680
WIRE 384 -160 336 -160
WIRE 528 -160 448 -160
WIRE -176 -128 -176 -144
WIRE 336 -64 336 -160
WIRE 336 -64 16 -64
WIRE 416 -64 336 -64
WIRE 528 -64 528 -160
WIRE 528 -64 496 -64
WIRE 576 -64 528 -64
WIRE -176 -32 -176 -48
WIRE 48 -32 -32 -32
WIRE 144 -32 128 -32
WIRE 64 16 32 16
WIRE 128 16 112 16
WIRE 176 32 176 -16
WIRE -224 80 -336 80
WIRE 16 80 16 -64
WIRE 16 80 -224 80
WIRE 32 80 32 16
WIRE 32 80 16 80
WIRE 48 80 32 80
WIRE 128 80 128 16
WIRE 144 80 128 80
WIRE -224 96 -224 80
WIRE 576 112 576 -64
WIRE 576 112 288 112
WIRE 768 112 576 112
WIRE -336 128 -336 80
WIRE -64 144 -96 144
WIRE 48 144 16 144
WIRE 96 144 48 144
WIRE 144 144 96 144
WIRE 96 192 96 144
WIRE 48 208 48 144
WIRE 224 208 224 192
WIRE -336 256 -336 208
WIRE -272 256 -336 256
WIRE -224 256 -224 160
WIRE -224 256 -272 256
WIRE 176 256 176 192
WIRE -272 288 -272 256
WIRE 48 288 48 272
WIRE 96 288 96 272
FLAG -176 -32 0
FLAG 176 -16 +V
FLAG -176 -144 +V
FLAG 176 256 0
FLAG -272 288 0
FLAG -32 -32 vout
FLAG 96 288 0
FLAG -96 144 +V
FLAG 48 288 0
FLAG 144 -32 0
SYMBOL voltage -176 -144 R0
WINDOW 123 0 0 Left 2
WINDOW 39 0 0 Left 2
SYMATTR InstName V1
SYMATTR Value 5
SYMBOL res 512 -80 R90
WINDOW 0 0 56 VBottom 2
WINDOW 3 32 56 VTop 2
SYMATTR InstName R1
SYMATTR Value 100k
SYMBOL cap -240 96 R0
SYMATTR InstName C2
SYMATTR Value 7p
SYMBOL cap 384 -144 R270
WINDOW 0 32 32 VTop 2
WINDOW 3 0 32 VBottom 2
SYMATTR InstName C3
SYMATTR Value 10p
SYMBOL current -336 128 R0
WINDOW 123 24 108 Left 2
WINDOW 39 0 0 Left 2
WINDOW 3 -103 202 Left 2
SYMATTR Value2 AC 2.5u
SYMATTR Value PULSE(0uA 2.5uA 0 1ns 1ns 40n 80n)
SYMATTR InstName I1
SYMBOL res 80 176 R0
SYMATTR InstName R2
SYMATTR Value 100k
SYMBOL res 32 128 R90
WINDOW 0 0 56 VBottom 2
WINDOW 3 32 56 VTop 2
SYMATTR InstName R3
SYMATTR Value 402k
SYMBOL cap 64 208 M0
SYMATTR InstName C1
SYMATTR Value 1u
SYMBOL res 144 64 R90
WINDOW 0 0 56 VBottom 2
WINDOW 3 32 56 VTop 2
SYMATTR InstName R4
SYMATTR Value 1 Noiseless
SYMBOL e 32 -32 R270
SYMATTR InstName E1
SYMATTR Value 1
SYMBOL Opamps\\LT1637 176 112 R0
SYMATTR InstName U1
TEXT -48 -152 Left 2 !;ac dec 200 100k 100Meg
TEXT 216 264 Left 2 ;This combination emulates\napproximately the LTC6268-10.
TEXT -48 -184 Left 2 !;tran 1us
TEXT -96 -112 Left 2 !.noise v(vout) I1 oct 100 100 100Meg
