Version 4
SHEET 1 948 680
WIRE 384 -160 336 -160
WIRE 528 -160 448 -160
WIRE -304 -128 -304 -144
WIRE -176 -128 -176 -144
WIRE 336 -64 336 -160
WIRE 336 -64 16 -64
WIRE 416 -64 336 -64
WIRE 528 -64 528 -160
WIRE 528 -64 496 -64
WIRE 576 -64 528 -64
WIRE -304 -32 -304 -48
WIRE -176 -32 -176 -48
WIRE 176 32 176 -16
WIRE -224 80 -336 80
WIRE 16 80 16 -64
WIRE 16 80 -224 80
WIRE 144 80 16 80
WIRE 576 80 576 -64
WIRE 752 80 576 80
WIRE 768 80 752 80
WIRE -224 96 -224 80
WIRE 576 112 576 80
WIRE 576 112 288 112
WIRE -336 128 -336 80
WIRE 144 144 112 144
WIRE 112 192 112 144
WIRE 224 208 224 192
WIRE -336 256 -336 208
WIRE -272 256 -336 256
WIRE -224 256 -224 160
WIRE -224 256 -272 256
WIRE 176 256 176 192
WIRE -272 416 -272 256
FLAG -176 -32 0
FLAG 176 -16 +V
FLAG -176 -144 +V
FLAG 176 256 -V
FLAG -304 -32 0
FLAG -304 -144 -V
FLAG 112 192 0
FLAG -272 416 0
FLAG 752 80 vout
SYMBOL voltage -176 -144 R0
WINDOW 123 0 0 Left 2
WINDOW 39 0 0 Left 2
SYMATTR InstName V1
SYMATTR Value 2.5
SYMBOL voltage -304 -144 R0
SYMATTR InstName V2
SYMATTR Value -2.5
SYMBOL res 512 -80 R90
WINDOW 0 0 56 VBottom 2
WINDOW 3 32 56 VTop 2
SYMATTR InstName R1
SYMATTR Value 10k
SYMBOL cap -240 96 R0
SYMATTR InstName C2
SYMATTR Value 1p
SYMBOL cap 384 -144 R270
WINDOW 0 32 32 VTop 2
WINDOW 3 0 32 VBottom 2
SYMATTR InstName C3
SYMATTR Value .1p
SYMBOL current -336 128 R0
WINDOW 123 24 108 Left 2
WINDOW 39 0 0 Left 2
WINDOW 3 -102 158 Left 2
SYMATTR Value2 AC 100u
SYMATTR Value PULSE(0uA 0.1u 10ns 0.5ns 0.5ns 10ns 100ns)
SYMATTR InstName I1
SYMBOL Opamps\\LTC6268-10 176 112 R0
SYMATTR InstName U1
TEXT -48 -152 Left 2 !.ac dec 200 100k 1000Meg
TEXT -48 -184 Left 2 !;tran 50ns
TEXT -96 -112 Left 2 !;noise v(vout) I1 oct 100 100k 100Meg
