Version 4
SHEET 1 1048 680
WIRE 384 -160 336 -160
WIRE 528 -160 448 -160
WIRE -272 -128 -272 -144
WIRE -176 -128 -176 -144
WIRE 336 -64 336 -160
WIRE 336 -64 16 -64
WIRE 416 -64 336 -64
WIRE 528 -64 528 -160
WIRE 528 -64 496 -64
WIRE 576 -64 528 -64
WIRE -272 -32 -272 -48
WIRE -176 -32 -176 -48
WIRE -992 0 -1024 0
WIRE -864 0 -896 0
WIRE -1024 32 -1024 0
WIRE -864 32 -864 0
WIRE 176 32 176 -16
WIRE -288 80 -400 80
WIRE 16 80 16 -64
WIRE 16 80 -288 80
WIRE 144 80 16 80
WIRE -288 96 -288 80
WIRE 576 112 576 -64
WIRE 576 112 288 112
WIRE 624 112 576 112
WIRE 640 112 624 112
WIRE -400 128 -400 80
WIRE 80 144 32 144
WIRE 144 144 80 144
WIRE 32 176 32 144
WIRE 80 176 80 144
WIRE 224 208 224 192
WIRE -400 256 -400 208
WIRE -336 256 -400 256
WIRE -288 256 -288 160
WIRE -288 256 -336 256
WIRE 32 288 32 256
WIRE 64 288 32 288
WIRE 80 288 80 240
WIRE 80 288 64 288
WIRE 176 288 176 192
WIRE 64 320 64 288
WIRE -336 336 -336 256
FLAG -176 -32 0
FLAG 176 -16 +V
FLAG -176 -144 -V
FLAG -336 336 0
FLAG 624 112 vout
FLAG 64 320 0
FLAG -1024 32 0
FLAG -864 32 0
FLAG -272 -32 0
FLAG -272 -144 +V
FLAG 176 288 -V
SYMBOL voltage -176 -144 R0
WINDOW 123 0 0 Left 2
WINDOW 39 0 0 Left 2
SYMATTR InstName V1
SYMATTR Value -2.5
SYMBOL res 512 -80 R90
WINDOW 0 0 56 VBottom 2
WINDOW 3 32 56 VTop 2
SYMATTR InstName R1
SYMATTR Value 1K
SYMBOL cap -304 96 R0
SYMATTR InstName C2
SYMATTR Value 12p
SYMBOL cap 384 -144 R270
WINDOW 0 32 32 VTop 2
WINDOW 3 0 32 VBottom 2
SYMATTR InstName C3
SYMATTR Value {Cf}
SYMBOL current -400 208 R180
WINDOW 123 24 108 Left 2
WINDOW 39 0 0 Left 2
WINDOW 3 -179 151 Left 2
SYMATTR Value2 AC 100u
SYMATTR Value PULSE(0uA 550uA 50ns 1ns 1ns 50ns 100n)
SYMATTR InstName I1
SYMBOL Opamps\\LTC6268-10 176 112 R0
SYMATTR InstName U2
SYMBOL res 48 272 R180
WINDOW 0 36 76 Left 2
WINDOW 3 36 40 Left 2
SYMATTR InstName R3
SYMATTR Value 1K
SYMBOL cap 64 176 R0
SYMATTR InstName C1
SYMATTR Value .1µ
SYMBOL tline -944 -16 R0
SYMATTR InstName T1
SYMATTR Value Td=0.2n Z0=50
SYMBOL voltage -272 -144 R0
WINDOW 123 0 0 Left 2
WINDOW 39 0 0 Left 2
SYMATTR InstName V2
SYMATTR Value 2.5
TEXT 480 240 Left 2 !.ac dec 200 100k 3000Meg
TEXT 480 200 Left 2 !;tran 200ns
TEXT 480 280 Left 2 !;noise v(vout) I1 oct 100 10k 300Meg
TEXT -208 184 Left 2 ;Detector
TEXT 568 -128 Left 2 !.step param Cf list .5p  1.0p 2.2p 4.7p
TEXT -1112 -80 Left 2 !;.step param Zz list 50 70 90 110 130 150 170 200
TEXT 576 -96 Left 2 !;.param Cf=1p
