Version 4
SHEET 1 1236 680
WIRE 32 -304 -288 -304
WIRE 112 -304 32 -304
WIRE 320 -304 192 -304
WIRE 624 -304 320 -304
WIRE 32 -224 32 -304
WIRE 160 -224 32 -224
WIRE 320 -224 320 -304
WIRE 320 -224 224 -224
WIRE 304 -192 304 -208
WIRE 352 -192 304 -192
WIRE 528 -192 416 -192
WIRE -976 -160 -976 -176
WIRE -880 -160 -880 -176
WIRE -752 -160 -752 -176
WIRE -656 -160 -656 -176
WIRE 112 -112 -48 -112
WIRE 304 -96 304 -192
WIRE 304 -96 256 -96
WIRE 320 -96 304 -96
WIRE 336 -96 320 -96
WIRE 528 -96 528 -192
WIRE 528 -96 416 -96
WIRE 256 -80 256 -96
WIRE -976 -64 -976 -80
WIRE -880 -64 -880 -80
WIRE -752 -64 -752 -80
WIRE -656 -64 -656 -80
WIRE -48 -64 -48 -112
WIRE 48 -32 48 -48
WIRE 384 16 384 -16
WIRE 256 32 256 0
WIRE 384 48 384 16
WIRE 48 64 48 -32
WIRE 320 64 320 -96
WIRE 352 64 320 64
WIRE -288 80 -288 -304
WIRE -288 80 -400 80
WIRE -160 80 -288 80
WIRE -48 80 -48 0
WIRE -48 80 -80 80
WIRE 16 80 -48 80
WIRE 48 80 48 64
WIRE 528 80 528 -96
WIRE 528 80 416 80
WIRE 624 80 624 -304
WIRE 624 80 528 80
WIRE 688 80 624 80
WIRE 736 80 688 80
WIRE -288 96 -288 80
WIRE 112 96 112 -112
WIRE 112 96 80 96
WIRE 192 96 112 96
WIRE 352 96 192 96
WIRE -16 112 -48 112
WIRE 16 112 -16 112
WIRE -400 128 -400 80
WIRE -48 144 -48 112
WIRE -16 144 -16 112
WIRE 16 144 -16 144
WIRE 384 144 384 112
WIRE 384 176 384 144
WIRE 48 240 48 128
WIRE -400 256 -400 208
WIRE -336 256 -400 256
WIRE -288 256 -288 160
WIRE -288 256 -336 256
WIRE 48 272 48 240
WIRE -336 336 -336 256
FLAG -880 -64 0
FLAG -880 -176 -V
FLAG -336 336 0
FLAG -976 -64 0
FLAG -976 -176 +V
FLAG -656 -64 0
FLAG -656 -176 Vm
FLAG -752 -64 0
FLAG -752 -176 Vp
FLAG 384 16 Vp
FLAG 384 144 Vm
FLAG -48 144 0
FLAG 688 80 Vout
FLAG 256 32 0
FLAG 48 -32 +V
FLAG 48 240 -V
FLAG 192 96 Vmid
SYMBOL voltage -880 -176 R0
WINDOW 123 0 0 Left 2
WINDOW 39 0 0 Left 2
SYMATTR InstName V1
SYMATTR Value -2.5
SYMBOL cap -304 96 R0
SYMATTR InstName C2
SYMATTR Value 1f
SYMBOL current -400 128 R0
WINDOW 123 24 108 Left 2
WINDOW 39 0 0 Left 2
WINDOW 3 -179 151 Left 2
SYMATTR Value2 AC 100u
SYMATTR Value SINE(0uA 500u 500K 1ns)
SYMATTR InstName I1
SYMBOL voltage -976 -176 R0
WINDOW 123 0 0 Left 2
WINDOW 39 0 0 Left 2
SYMATTR InstName V2
SYMATTR Value 2.5
SYMBOL opamps\\LT1360 384 16 R0
SYMATTR InstName U3
SYMBOL voltage -656 -176 R0
WINDOW 123 0 0 Left 2
WINDOW 39 0 0 Left 2
SYMATTR InstName V3
SYMATTR Value -15
SYMBOL voltage -752 -176 R0
WINDOW 123 0 0 Left 2
WINDOW 39 0 0 Left 2
SYMATTR InstName V4
SYMATTR Value 15
SYMBOL res 432 -112 R90
WINDOW 0 0 56 VBottom 2
WINDOW 3 32 56 VTop 2
SYMATTR InstName R4
SYMATTR Value 4.02K
SYMBOL res 272 16 R180
WINDOW 0 36 76 Left 2
WINDOW 3 36 40 Left 2
SYMATTR InstName R1
SYMATTR Value 1K
SYMBOL res 208 -320 R90
WINDOW 0 0 56 VBottom 2
WINDOW 3 32 56 VTop 2
SYMATTR InstName R2
SYMATTR Value 2K
SYMBOL cap 224 -240 R90
WINDOW 0 0 32 VBottom 2
WINDOW 3 32 32 VTop 2
SYMATTR InstName C1
SYMATTR Value 1p
SYMBOL cap 416 -208 R90
WINDOW 0 0 32 VBottom 2
WINDOW 3 32 32 VTop 2
SYMATTR InstName C3
SYMATTR Value 5p
SYMBOL opamps\\LTC6240 48 96 R0
SYMATTR InstName U1
SYMBOL res -64 64 R90
WINDOW 0 0 56 VBottom 2
WINDOW 3 32 56 VTop 2
SYMATTR InstName R3
SYMATTR Value 1K
SYMBOL cap -32 0 R180
WINDOW 0 24 56 Left 2
WINDOW 3 24 8 Left 2
SYMATTR InstName C4
SYMATTR Value 100p
TEXT -960 240 Left 2 !;ac dec 200 100k 3000Meg
TEXT -960 200 Left 2 !.tran 100us
TEXT -960 280 Left 2 !;noise v(vout) I1 oct 100 10k 300Meg
TEXT -208 184 Left 2 ;Detector
