Version 4
SHEET 1 2980 1080
WIRE 2208 -256 2176 -256
WIRE 2208 -208 2208 -256
WIRE 2208 -96 2208 -128
WIRE 2208 -96 2176 -96
WIRE 0 0 -336 0
WIRE 240 0 0 0
WIRE 368 0 240 0
WIRE 464 0 368 0
WIRE 560 0 464 0
WIRE 656 0 560 0
WIRE -336 16 -336 0
WIRE 240 16 240 0
WIRE 368 16 368 0
WIRE 464 16 464 0
WIRE 656 16 656 0
WIRE 832 16 736 16
WIRE 896 16 832 16
WIRE 1040 16 960 16
WIRE 1120 16 1040 16
WIRE 1152 16 1120 16
WIRE 736 32 736 16
WIRE 832 32 832 16
WIRE 2208 48 2128 48
WIRE 1040 64 1040 16
WIRE 1120 64 1120 16
WIRE 2208 80 2208 48
WIRE 240 96 240 80
WIRE 368 96 368 80
WIRE 560 96 560 64
WIRE -336 112 -336 96
WIRE 464 160 416 160
WIRE 560 160 464 160
WIRE 656 160 656 96
WIRE 656 160 560 160
WIRE 0 176 0 0
WIRE 128 176 0 176
WIRE 416 176 416 160
WIRE 416 176 352 176
WIRE 1040 176 1040 128
WIRE 1040 176 832 176
WIRE 1120 176 1120 128
WIRE 1120 176 1040 176
WIRE 1152 176 1120 176
WIRE 0 192 0 176
WIRE 416 192 416 176
WIRE 2208 208 2208 160
WIRE 2208 208 2176 208
WIRE 2208 240 2128 240
WIRE 736 272 736 112
WIRE 832 272 736 272
WIRE 928 272 832 272
WIRE 1056 272 992 272
WIRE 1152 272 1056 272
WIRE 736 288 736 272
WIRE 832 288 832 272
WIRE 2208 288 2208 240
WIRE 0 304 0 272
WIRE 128 304 0 304
WIRE 416 304 416 272
WIRE 416 304 352 304
WIRE 0 320 0 304
WIRE 1056 320 1056 272
WIRE 2176 400 2176 208
WIRE 2208 400 2208 368
WIRE 2208 400 2176 400
WIRE 0 416 0 400
WIRE 208 416 0 416
WIRE 240 416 240 352
WIRE 240 416 208 416
WIRE 592 416 240 416
WIRE 736 432 736 368
WIRE 784 432 736 432
WIRE 832 432 784 432
WIRE 1056 432 1056 384
WIRE 1056 432 832 432
WIRE 1152 432 1056 432
WIRE 2208 432 2128 432
WIRE 208 448 208 416
WIRE 592 464 592 416
WIRE 640 464 592 464
WIRE 784 464 784 432
WIRE 784 464 704 464
WIRE 2208 464 2208 432
WIRE 400 528 352 528
WIRE 448 528 400 528
WIRE 544 528 512 528
WIRE 656 528 544 528
WIRE 832 528 736 528
WIRE 1056 528 832 528
WIRE 1152 528 1056 528
WIRE 544 544 544 528
WIRE 656 544 656 528
WIRE 832 544 832 528
WIRE 736 560 736 528
WIRE 400 576 400 528
WIRE 1056 576 1056 528
WIRE 2144 576 2128 576
WIRE 2176 576 2176 400
WIRE 2176 576 2144 576
WIRE 2208 576 2208 544
WIRE 2208 576 2176 576
WIRE 2144 624 2144 576
WIRE 400 688 400 640
WIRE 544 688 400 688
WIRE 656 688 656 624
WIRE 656 688 544 688
WIRE 736 688 736 640
WIRE 832 688 736 688
WIRE 912 688 832 688
WIRE 1056 688 1056 640
WIRE 1056 688 976 688
WIRE 1152 688 1056 688
WIRE 400 720 400 688
FLAG -336 112 0
FLAG -336 0 IN
FLAG 1152 272 +5V_OUT
FLAG 240 96 0
FLAG 1152 16 +15V_OUT
FLAG 1152 688 -5V_OUT
FLAG 400 720 0
FLAG 352 528 +5V_NON_ISOLATED
FLAG 2128 48 +5V_OUT
FLAG 2128 240 +15V_OUT
FLAG 2128 432 -5V_OUT
FLAG 1152 528 0V_ISOLATED
FLAG 1152 176 0V_ISOLATED
FLAG 1152 432 0V_ISOLATED
FLAG 2128 576 0V_ISOLATED
FLAG 2144 624 0
FLAG 2176 -96 0
FLAG 2176 -256 +5V_NON_ISOLATED
FLAG 368 96 0
FLAG 208 448 0
SYMBOL voltage -336 0 R0
WINDOW 123 0 0 Left 2
WINDOW 39 0 0 Left 2
SYMATTR InstName Vin
SYMATTR Value 12
SYMBOL res -16 176 R0
SYMATTR InstName R1
SYMATTR Value 56k
SYMBOL res -16 304 R0
SYMATTR InstName R2
SYMATTR Value 16k
SYMBOL ind2 640 0 R0
WINDOW 0 -1 46 Right 2
WINDOW 3 0 76 Right 2
SYMATTR InstName L1
SYMATTR Value 36µ
SYMATTR Type ind
SYMATTR SpiceLine Rser=165m Rpar=500k Cpar=4.7p
SYMBOL ind2 752 384 R180
WINDOW 0 -3 64 Right 2
WINDOW 3 1 34 Right 2
SYMATTR InstName L2
SYMATTR Value 4µ
SYMATTR Type ind
SYMATTR SpiceLine Rser=53m Cpar=1p
SYMBOL res 400 176 R0
SYMATTR InstName R4
SYMATTR Value 156k
SYMBOL schottky 928 288 R270
WINDOW 0 32 32 VTop 2
WINDOW 3 0 32 VBottom 2
SYMATTR InstName D1
SYMATTR Value RB400D
SYMATTR Description Diode
SYMATTR Type diode
SYMBOL cap 1040 320 R0
SYMATTR InstName C5
SYMATTR Value 22µ
SYMATTR SpiceLine V=6.3 Rser=0.003
SYMBOL cap 224 16 R0
WINDOW 3 26 52 Left 2
SYMATTR Value 4.7µ
SYMATTR InstName C1
SYMATTR SpiceLine V=50 Irms=4 Rser=0.01 Lser=0 mfg="Murata" pn="GCJ32ER71H475KA" type="X7R(1210)"
SYMBOL ind2 752 128 R180
WINDOW 0 -3 64 Right 2
WINDOW 3 1 34 Right 2
SYMATTR InstName L3
SYMATTR Value 12.96µ
SYMATTR Type ind
SYMATTR SpiceLine Rser=100m Cpar=1p
SYMBOL schottky 896 32 R270
WINDOW 0 32 32 VTop 2
WINDOW 3 -4 53 VBottom 2
SYMATTR InstName D2
SYMATTR Value RB411VA-50
SYMATTR Description Diode
SYMATTR Type diode
SYMBOL cap 1024 64 R0
SYMATTR InstName C2
SYMATTR Value 10µ
SYMATTR SpiceLine V=25 Rser=0.003
SYMBOL ind2 752 656 R180
WINDOW 0 -3 64 Right 2
WINDOW 3 1 34 Right 2
SYMATTR InstName L4
SYMATTR Value 4µ
SYMATTR Type ind
SYMATTR SpiceLine Rser=105m Cpar=1p
SYMBOL schottky 976 704 M270
WINDOW 0 32 32 VTop 2
WINDOW 3 0 32 VBottom 2
SYMATTR InstName D3
SYMATTR Value RB481Y-40
SYMATTR Description Diode
SYMATTR Type diode
SYMBOL cap 1040 576 R0
SYMATTR InstName C4
SYMATTR Value 22µ
SYMATTR SpiceLine V=10 Rser=0.003
SYMBOL zener 544 0 R0
WINDOW 0 39 19 Left 2
WINDOW 3 -24 -17 Left 2
SYMATTR InstName D4
SYMATTR Value EDZV27B
SYMATTR Description Diode
SYMATTR Type diode
SYMBOL schottky 576 160 R180
WINDOW 0 -35 27 Left 2
WINDOW 3 -51 -22 Left 2
SYMATTR InstName D5
SYMATTR Value BAT46WJ
SYMATTR Description Diode
SYMATTR Type diode
SYMBOL cap 448 16 R0
SYMATTR InstName C6
SYMATTR Value 100p
SYMBOL res 448 64 R0
SYMATTR InstName R3
SYMATTR Value 220
SYMBOL ind2 640 640 M180
WINDOW 0 -3 64 Right 2
WINDOW 3 1 34 Right 2
SYMATTR InstName L5
SYMATTR Value 4µ
SYMATTR Type ind
SYMATTR SpiceLine Rser=110m Cpar=1p
SYMBOL schottky 512 544 M270
WINDOW 0 32 32 VTop 2
WINDOW 3 0 32 VBottom 2
SYMATTR InstName D6
SYMATTR Value RB400D
SYMATTR Description Diode
SYMATTR Type diode
SYMBOL cap 416 576 M0
SYMATTR InstName C10
SYMATTR Value 22µ
SYMATTR SpiceLine V=10 Rser=0.003
SYMBOL PowerProducts\\LT8301 240 240 R0
SYMATTR InstName U2
SYMBOL cap 816 288 R0
SYMATTR InstName C3
SYMATTR Value 100p
SYMBOL res 816 336 R0
SYMATTR InstName R5
SYMATTR Value 100
SYMBOL cap 816 544 R0
SYMATTR InstName C7
SYMATTR Value 100p
SYMBOL res 816 592 R0
SYMATTR InstName R6
SYMATTR Value 100
SYMBOL cap 816 32 R0
SYMATTR InstName C8
SYMATTR Value 68p
SYMBOL res 816 80 R0
SYMATTR InstName R7
SYMATTR Value 1k
SYMBOL cap 528 544 R0
SYMATTR InstName C9
SYMATTR Value 100p
SYMBOL res 528 592 R0
SYMATTR InstName R8
SYMATTR Value 100
SYMBOL cap 704 448 R90
WINDOW 0 -2 40 VBottom 2
WINDOW 3 37 42 VTop 2
SYMATTR InstName C11
SYMATTR Value 1n
SYMATTR SpiceLine V=250
SYMBOL cap 352 16 R0
WINDOW 3 26 52 Left 2
SYMATTR Value 4.7µ
SYMATTR InstName C12
SYMATTR SpiceLine V=50 Irms=4 Rser=0.01 Lser=0 mfg="Murata" pn="GCJ32ER71H475KA" type="X7R(1210)"
SYMBOL zener 1104 128 M180
WINDOW 0 24 64 Left 2
WINDOW 3 24 0 Left 2
SYMATTR InstName D7
SYMATTR Value EDZV16B
SYMATTR Description Diode
SYMATTR Type diode
SYMBOL res 2192 64 R0
SYMATTR InstName Rload1
SYMATTR Value 50
SYMBOL res 2192 272 R0
SYMATTR InstName Rload2
SYMATTR Value 750
SYMBOL res 2192 448 R0
SYMATTR InstName Rload3
SYMATTR Value 250
SYMBOL res 2224 -224 M0
SYMATTR InstName Rload4
SYMATTR Value 100
TEXT 504 -80 Bottom 2 !K1 L1 L2 L3 L4 L5 0.98
TEXT -96 800 Left 2 !.tran 6.5m startup
TEXT 656 -224 Bottom 2 ;LT8302 - 42Vin µPower No-Opto Isolated Flyback Converter with 65V/3.6A Switch\nµPower No-Opto Isolated Flyback Converter\nInput: 6V to 18V       Output: 5V, -5V, 15V and non-isolated 5V
TEXT 208 896 Left 2 ;Note:\n  D7 is fitted to prevent the coupled outputs from drfiting out of specification. \n  If the simulation model is not found please update with the "Sync Release" command from the "Tools" menu.\n  It remains the customer's responsibility to verify proper and reliable operation in the actual application.\n  Component substitution and printed circuit board layout may significantly affect circuit performance or reliability.\n  Contact your local sales representative for assistance. This circuit is distributed to customers only for use with LTC parts.\n  Copyright © 2013 Linear Technology Inc. All rights reserved.
TEXT 616 368 Left 2 ;Y2\nClass
TEXT 2040 656 Left 2 ;Connected to GND\nfor ease of simulation
TEXT 2120 -312 Left 2 ;LOADS
LINE Normal 688 672 688 0 1
LINE Normal 704 672 704 0 1
