Version 4
SHEET 1 2572 948
WIRE -32 0 -128 0
WIRE 240 0 -32 0
WIRE 464 0 240 0
WIRE 560 0 464 0
WIRE 656 0 560 0
WIRE 864 0 752 0
WIRE 992 0 928 0
WIRE 1088 0 992 0
WIRE -128 16 -128 0
WIRE 240 16 240 0
WIRE 464 16 464 0
WIRE 656 16 656 0
WIRE 752 16 752 0
WIRE 992 16 992 0
WIRE 1088 16 1088 0
WIRE 2032 16 2000 16
WIRE 2144 16 2112 16
WIRE 2176 16 2144 16
WIRE 2000 64 2000 16
WIRE 2144 64 2144 16
WIRE 240 96 240 80
WIRE 560 96 560 64
WIRE -128 112 -128 96
WIRE 464 160 416 160
WIRE 560 160 464 160
WIRE 656 160 656 96
WIRE 656 160 560 160
WIRE 752 160 752 96
WIRE 992 160 992 80
WIRE 992 160 752 160
WIRE 1088 160 1088 96
WIRE 1088 160 992 160
WIRE -32 176 -32 0
WIRE 128 176 -32 176
WIRE 416 176 416 160
WIRE 416 176 352 176
WIRE 992 176 992 160
WIRE 2000 176 2000 144
WIRE 2144 176 2144 128
WIRE -32 192 -32 176
WIRE 416 192 416 176
WIRE 864 240 752 240
WIRE 992 240 928 240
WIRE 1088 240 992 240
WIRE 752 256 752 240
WIRE 992 256 992 240
WIRE 128 272 -32 272
WIRE 416 272 352 272
WIRE 1088 272 1088 240
WIRE -32 288 -32 272
WIRE 2032 288 2000 288
WIRE 2144 288 2112 288
WIRE 2176 288 2144 288
WIRE 2000 336 2000 288
WIRE 2144 336 2144 288
WIRE 128 368 64 368
WIRE 432 368 352 368
WIRE -32 384 -32 368
WIRE 64 384 64 368
WIRE 432 384 432 368
WIRE 752 384 752 336
WIRE 912 384 752 384
WIRE 992 384 992 320
WIRE 992 384 912 384
WIRE 1088 384 1088 352
WIRE 1088 384 992 384
WIRE 992 400 992 384
WIRE 912 448 912 384
WIRE 912 448 752 448
WIRE 992 448 912 448
WIRE 1088 448 992 448
WIRE 2000 448 2000 416
WIRE 2144 448 2144 400
WIRE 64 464 64 448
WIRE 128 464 64 464
WIRE 992 464 992 448
WIRE 432 480 432 464
WIRE 752 480 752 448
WIRE 1088 480 1088 448
WIRE 64 496 64 464
WIRE 2032 560 2000 560
WIRE 2144 560 2112 560
WIRE 2192 560 2144 560
WIRE 752 592 752 560
WIRE 864 592 752 592
WIRE 992 592 992 528
WIRE 992 592 928 592
WIRE 1088 592 1088 560
WIRE 1088 592 992 592
WIRE 2000 608 2000 560
WIRE 2144 608 2144 560
WIRE 2000 720 2000 688
WIRE 2144 720 2144 672
FLAG -128 112 0
FLAG -32 384 0
FLAG -128 0 IN
FLAG 992 176 0
FLAG 1088 0 +5V_OUT
FLAG 240 96 0
FLAG 64 496 0
FLAG 432 480 0
FLAG 992 400 0
FLAG 1088 240 +15V_OUT
FLAG 1088 592 -5V_OUT
FLAG 2000 448 0
FLAG 2144 448 0
FLAG 2176 288 PIN
FLAG 2000 176 0
FLAG 2144 176 0
FLAG 2176 16 POUT
FLAG 2000 720 0
FLAG 2144 720 0
FLAG 2192 560 efficiency
SYMBOL voltage -128 0 R0
WINDOW 123 0 0 Left 2
WINDOW 39 0 0 Left 2
SYMATTR InstName Vin
SYMATTR Value 13
SYMBOL res -48 176 R0
SYMATTR InstName R1
SYMATTR Value 100K
SYMBOL res -48 272 R0
SYMATTR InstName R2
SYMATTR Value 16k
SYMBOL ind2 640 0 R0
WINDOW 0 -1 46 Right 2
WINDOW 3 0 76 Right 2
SYMATTR InstName L1
SYMATTR Value 36µ
SYMATTR Type ind
SYMATTR SpiceLine Rser=36m Rpar=500k Cpar=4.7p
SYMBOL ind2 768 112 R180
WINDOW 0 -3 64 Right 2
WINDOW 3 1 34 Right 2
SYMATTR InstName L2
SYMATTR Value 4µ
SYMATTR Type ind
SYMATTR SpiceLine Rser=7m Cpar=1p
SYMBOL res 400 176 R0
SYMATTR InstName R4
SYMATTR Value 158k
SYMBOL schottky 864 16 R270
WINDOW 0 32 32 VTop 2
WINDOW 3 0 32 VBottom 2
SYMATTR InstName D1
SYMATTR Value MBRS140
SYMATTR Description Diode
SYMATTR Type diode
SYMBOL cap 976 16 R0
SYMATTR InstName C5
SYMATTR Value 22µ
SYMATTR SpiceLine V=6.3 Rser=0.003
SYMBOL cap 224 16 R0
WINDOW 3 26 52 Left 2
SYMATTR Value 10µ
SYMATTR InstName C1
SYMATTR SpiceLine V=50 Irms=4 Rser=0.001
SYMBOL res 1072 0 R0
SYMATTR InstName Rload
SYMATTR Value 50
SYMBOL cap 48 384 R0
SYMATTR InstName C3
SYMATTR Value 1µ
SYMBOL res 416 368 R0
SYMATTR InstName R6
SYMATTR Value 10K
SYMBOL PowerProducts\\LT8302 240 320 R0
SYMATTR InstName U1
SYMBOL ind2 768 352 R180
WINDOW 0 -3 64 Right 2
WINDOW 3 1 34 Right 2
SYMATTR InstName L3
SYMATTR Value 36µ
SYMATTR Type ind
SYMATTR SpiceLine Rser=50m Cpar=1p
SYMBOL schottky 864 256 R270
WINDOW 0 32 32 VTop 2
WINDOW 3 0 32 VBottom 2
SYMATTR InstName D2
SYMATTR Value MBRS1100
SYMATTR Description Diode
SYMATTR Type diode
SYMBOL cap 976 256 R0
SYMATTR InstName C2
SYMATTR Value 10µ
SYMATTR SpiceLine V=25 Rser=0.003
SYMBOL res 1072 256 R0
SYMATTR InstName Rload1
SYMATTR Value 75
SYMBOL ind2 768 576 R180
WINDOW 0 -3 64 Right 2
WINDOW 3 1 34 Right 2
SYMATTR InstName L4
SYMATTR Value 4µ
SYMATTR Type ind
SYMATTR SpiceLine Rser=7m Cpar=1p
SYMBOL schottky 928 608 M270
WINDOW 0 32 32 VTop 2
WINDOW 3 0 32 VBottom 2
SYMATTR InstName D3
SYMATTR Value MBRS140
SYMATTR Description Diode
SYMATTR Type diode
SYMBOL cap 976 464 R0
SYMATTR InstName C4
SYMATTR Value 22µ
SYMATTR SpiceLine V=6.3 Rser=0.003
SYMBOL res 1072 464 R0
SYMATTR InstName Rload2
SYMATTR Value 25
SYMBOL zener 544 0 R0
WINDOW 0 39 19 Left 2
WINDOW 3 -24 -17 Left 2
SYMATTR InstName D4
SYMATTR Value PTZ22B
SYMATTR Description Diode
SYMATTR Type diode
SYMBOL schottky 576 160 R180
WINDOW 0 -35 27 Left 2
WINDOW 3 -51 -22 Left 2
SYMATTR InstName D5
SYMATTR Value MBRS1100
SYMATTR Description Diode
SYMATTR Type diode
SYMBOL cap 448 16 R0
SYMATTR InstName C6
SYMATTR Value 220p
SYMBOL res 448 64 R0
SYMATTR InstName R3
SYMATTR Value 680
SYMBOL bv 2000 320 M0
WINDOW 0 -72 55 Left 2
WINDOW 3 -137 178 Left 2
SYMATTR InstName B1
SYMATTR Value V=abs(V(in)*i(Vin))
SYMBOL res 2016 272 M90
WINDOW 0 0 56 VBottom 2
WINDOW 3 32 56 VTop 2
SYMATTR InstName R5
SYMATTR Value 1k
SYMBOL cap 2160 336 M0
WINDOW 0 -43 18 Left 2
WINDOW 3 -46 44 Left 2
SYMATTR InstName C7
SYMATTR Value 22n
SYMBOL bv 2000 48 M0
WINDOW 0 -72 55 Left 2
WINDOW 3 -568 171 Left 2
SYMATTR InstName B2
SYMATTR Value V=V(+5V_out)*I(Rload)+V(+15V_out)*I(Rload1)+abs(V(-5V_out)*I(rload2))
SYMBOL res 2016 0 M90
WINDOW 0 0 56 VBottom 2
WINDOW 3 32 56 VTop 2
SYMATTR InstName R7
SYMATTR Value 1k
SYMBOL cap 2160 64 M0
WINDOW 0 -43 18 Left 2
WINDOW 3 -46 44 Left 2
SYMATTR InstName C8
SYMATTR Value 22n
SYMBOL bv 2000 592 M0
WINDOW 0 -72 55 Left 2
WINDOW 3 -192 181 Left 2
SYMATTR InstName B3
SYMATTR Value V=limit(v(pout)/v(pin),0,1)
SYMBOL res 2016 544 M90
WINDOW 0 0 56 VBottom 2
WINDOW 3 32 56 VTop 2
SYMATTR InstName R8
SYMATTR Value 1k
SYMBOL cap 2160 608 M0
WINDOW 0 -43 18 Left 2
WINDOW 3 -46 44 Left 2
SYMATTR InstName C9
SYMATTR Value 22n
TEXT 712 -48 Bottom 2 !K1 L1 L2 L3 L4 0.98
TEXT 464 760 Left 2 !.tran 4.5m startup
TEXT 328 -72 Bottom 2 ;LT8302 - 42Vin µPower No-Opto Isolated Flyback Converter with 65V/3.6A Switch\nµPower No-Opto Isolated Flyback Converter\nInput: 10V to 30V       Output: 5V @ 2.2A
TEXT -216 792 Left 2 ;Note:\n  If the simulation model is not found please update with the "Sync Release" command from the "Tools" menu.\n  It remains the customer's responsibility to verify proper and reliable operation in the actual application.\n  Component substitution and printed circuit board layout may significantly affect circuit performance or reliability.\n  Contact your local sales representative for assistance. This circuit is distributed to customers only for use with LTC parts.\n  Copyright © 2013 Linear Technology Inc. All rights reserved.
