Version 4
SHEET 1 3248 1220
WIRE 240 240 240 224
WIRE 240 240 96 240
WIRE 272 240 240 240
WIRE 400 240 272 240
WIRE 400 256 400 240
WIRE 304 288 -96 288
WIRE 336 288 304 288
WIRE -224 304 -224 288
WIRE -96 304 -96 288
WIRE 240 320 240 240
WIRE 272 352 272 240
WIRE 400 352 400 336
WIRE 144 384 32 384
WIRE 304 384 304 288
WIRE -224 400 -224 384
WIRE -96 400 -96 384
WIRE 336 416 336 288
WIRE 400 432 400 416
WIRE 400 432 368 432
WIRE 96 448 96 240
WIRE 144 448 96 448
WIRE 368 448 368 432
WIRE 400 480 400 432
WIRE 32 512 32 384
WIRE 480 544 464 544
WIRE 496 544 480 544
WIRE 592 544 576 544
WIRE 640 544 592 544
WIRE 656 544 640 544
WIRE 768 544 656 544
WIRE 1024 544 848 544
WIRE 1088 544 1024 544
WIRE 1184 544 1088 544
WIRE 1424 544 1184 544
WIRE 1088 560 1088 544
WIRE 448 576 432 576
WIRE 480 608 480 544
WIRE 480 608 400 608
WIRE 592 640 592 544
WIRE 592 640 368 640
WIRE 144 672 112 672
WIRE 640 672 640 624
WIRE 1024 672 1024 544
WIRE 1024 672 640 672
WIRE 640 688 640 672
WIRE -176 720 -176 704
WIRE -48 720 -48 704
WIRE 304 720 304 704
WIRE 336 720 336 672
WIRE 336 720 304 720
WIRE 336 736 336 720
WIRE 272 768 272 736
WIRE 928 768 896 768
WIRE 1088 768 1088 640
WIRE 1088 768 1008 768
WIRE 1200 768 1088 768
WIRE 1424 768 1200 768
WIRE 112 800 112 672
WIRE 640 800 640 768
WIRE 640 800 112 800
WIRE 896 800 896 768
WIRE -176 816 -176 800
WIRE -48 816 -48 800
WIRE 640 816 640 800
WIRE 1408 864 1344 864
WIRE 1568 864 1488 864
WIRE 640 960 640 896
WIRE 272 976 272 960
WIRE 1456 976 1456 944
WIRE 1344 992 1344 864
WIRE 1344 992 1248 992
WIRE 1424 992 1344 992
WIRE 1568 1008 1568 864
WIRE 1568 1008 1488 1008
WIRE 1632 1008 1568 1008
WIRE 1424 1024 1344 1024
WIRE 1456 1152 1456 1040
WIRE 32 1184 32 592
WIRE 272 1184 272 1056
WIRE 272 1184 32 1184
WIRE 1088 1184 1088 768
WIRE 1088 1184 272 1184
WIRE 1344 1184 1344 1024
WIRE 1344 1184 1088 1184
FLAG -48 816 0
FLAG -176 816 0
FLAG -176 704 -V
FLAG -48 704 +V
FLAG 272 768 0
FLAG 240 224 +V
FLAG 336 736 -V
FLAG -224 400 0
FLAG 656 544 OUT
FLAG -96 400 0
FLAG 1184 544 OUTREMOTE
FLAG 896 800 0
FLAG 1200 768 GNDREMOTE
FLAG 1456 944 +V
FLAG 1456 1152 -V
FLAG 1248 1072 0
FLAG 1632 1008 IN
FLAG 640 960 IN
SYMBOL voltage -176 704 R0
SYMATTR InstName V1
SYMATTR Value -15
SYMBOL voltage -48 704 R0
SYMATTR InstName V2
SYMATTR Value +15
SYMBOL voltage 272 960 R0
WINDOW 123 0 0 Left 0
WINDOW 39 0 0 Left 0
SYMATTR InstName V3
SYMATTR Value SINE(0 .1 100)
SYMBOL opamps\\LT1970 304 544 R0
SYMATTR InstName U1
SYMBOL res 592 528 R90
WINDOW 0 0 56 VBottom 2
WINDOW 3 32 56 VTop 2
SYMATTR InstName R1
SYMATTR Value 4.02
SYMBOL res 384 240 R0
SYMATTR InstName R2
SYMATTR Value 3K
SYMBOL res 624 672 R0
SYMATTR InstName R3
SYMATTR Value 4.99K
SYMBOL res 624 800 R0
SYMATTR InstName R4
SYMATTR Value 1.18K
SYMBOL LED 384 352 R0
SYMATTR Value QTLP690C
SYMATTR InstName D1
SYMATTR Description Diode
SYMATTR Type diode
SYMBOL voltage -224 288 R0
SYMATTR InstName V4
SYMATTR Value {X}
SYMBOL res 1072 544 R0
SYMATTR InstName Rload
SYMATTR Value 47
SYMBOL res 16 496 R0
SYMATTR InstName R5
SYMATTR Value 1K
SYMBOL voltage -96 288 R0
WINDOW 123 0 0 Left 0
WINDOW 39 0 0 Left 0
SYMATTR InstName V5
SYMATTR Value 5
SYMBOL voltage 864 544 R90
WINDOW 0 -32 56 VBottom 2
WINDOW 3 32 56 VTop 2
WINDOW 123 0 0 Left 0
WINDOW 39 0 0 Left 0
SYMATTR InstName VerrorPositive
SYMATTR Value .1
SYMBOL voltage 912 768 R270
WINDOW 0 -32 56 VBottom 2
WINDOW 3 32 56 VTop 2
WINDOW 123 0 0 Left 0
WINDOW 39 0 0 Left 0
SYMATTR InstName VerrorNegative
SYMATTR Value .2
SYMBOL res 656 640 R180
WINDOW 0 36 76 Left 2
WINDOW 3 36 40 Left 2
SYMATTR InstName R6
SYMATTR Value 100
SYMBOL Opamps\\LT1112 1456 944 R0
SYMATTR InstName U2
SYMBOL res 1504 848 R90
WINDOW 0 0 56 VBottom 2
WINDOW 3 32 56 VTop 2
SYMATTR InstName R7
SYMATTR Value 1K
SYMBOL current 1248 1072 R180
WINDOW 0 24 80 Left 2
WINDOW 3 24 0 Left 2
WINDOW 123 0 0 Left 0
WINDOW 39 0 0 Left 0
SYMATTR InstName I1
SYMATTR Value SINE(0 100u 100)
TEXT 744 832 Left 2 !.tran .1\n.step param X list 0 1 2 3 4 5
TEXT 536 272 Left 2 ;R6 is only there in case remote sense breaks.\nNormally not used.
TEXT 1160 464 Left 2 ;Output we want to sense, positive.
TEXT 656 656 Left 2 ;Feedback signal from remote.
TEXT 368 656 Left 2 ;Current Sense\nLocal Connections
TEXT 1312 624 Left 2 ;V(OUTREMOTE,GNDREMOTE) is the real output voltage at the load.
TEXT 392 1120 Left 2 ;Remote ground connects to the voltage at +IN.\nRemote ground is the reference for the input signal.
TEXT -1296 424 Left 2 ;Excitation is created relative to REMOTE ground.\nWe can do this because the excitation is a TIA (like DAC output amp), and that TIA\ncan use GNDREMOTE at +IN.\n \nAlso, the LT1970 +IN input is not connected to local ground, but rather to GNDREMOTE.\n \nAlso, the positive feedback signal to the 4.99K feedback resistor comes from OUTREMOTE.\n \nAll of these connections allow the 1970 in one location to control the load at another location.
TEXT 1584 1104 Left 2 ;LT1112 is used a DAC TIA amp.
