Version 4
SHEET 1 1260 680
WIRE 144 -368 -64 -368
WIRE 528 -368 224 -368
WIRE -64 -208 -64 -368
WIRE 96 -208 -64 -208
WIRE 320 -208 160 -208
WIRE 528 -208 528 -368
WIRE 528 -208 400 -208
WIRE 528 -160 528 -208
WIRE 528 -64 528 -160
WIRE -240 -48 -352 -48
WIRE -240 32 -240 -48
WIRE 144 96 144 -32
WIRE -64 144 -64 -208
WIRE 48 144 -64 144
WIRE 112 144 48 144
WIRE 320 176 256 176
WIRE 528 176 528 16
WIRE 528 176 400 176
WIRE 720 176 528 176
WIRE 880 176 720 176
WIRE -240 192 -240 112
WIRE 112 208 -64 208
WIRE 880 208 880 176
WIRE 528 240 528 176
WIRE -64 288 -64 208
WIRE 192 288 192 256
WIRE 144 368 144 256
WIRE 528 368 528 304
WIRE 880 368 880 288
WIRE -64 448 -64 368
FLAG -240 192 0
FLAG -352 -48 V+
FLAG 144 368 0
FLAG 144 -32 V+
FLAG 192 288 V+
FLAG 528 368 0
FLAG -64 448 0
FLAG -64 208 Vref
FLAG 720 176 VOUT
FLAG 48 144 IN-
FLAG 880 368 0
FLAG 528 -160 Ve
SYMBOL Opamps\\LTC6258 144 176 R0
SYMATTR InstName U1
SYMBOL voltage -240 16 R0
SYMATTR InstName UP5V0
SYMATTR Value 5
SYMBOL cap 160 -224 R90
WINDOW 0 0 32 VBottom 2
WINDOW 3 32 32 VTop 2
SYMATTR InstName C0365
SYMATTR Value 1.5n
SYMBOL res 416 -224 R90
WINDOW 0 0 56 VBottom 2
WINDOW 3 32 56 VTop 2
SYMATTR InstName R0351
SYMATTR Value 10K
SYMBOL res 304 192 R270
WINDOW 0 32 56 VTop 2
WINDOW 3 0 56 VBottom 2
SYMATTR InstName R0352
SYMATTR Value 10
SYMBOL cap 512 240 R0
SYMATTR InstName C0366
SYMATTR Value 100n
SYMBOL voltage -64 272 R0
WINDOW 123 0 0 Left 0
WINDOW 39 0 0 Left 0
SYMATTR InstName Vref
SYMATTR Value 3.3
SYMBOL res 240 -384 R90
WINDOW 0 0 56 VBottom 2
WINDOW 3 32 56 VTop 2
SYMATTR InstName R0353
SYMATTR Value 1K
SYMBOL voltage 528 -80 R0
WINDOW 123 24 44 Left 2
WINDOW 39 0 0 Left 0
SYMATTR Value2 AC 1
SYMATTR InstName V1
SYMATTR Value 0
SYMBOL current 880 208 R0
WINDOW 123 0 0 Left 0
WINDOW 39 0 0 Left 0
SYMATTR InstName I1
SYMATTR Value PULSE(0 10m 1m 1u 1u 1m 2m)
TEXT -400 360 Left 2 !;tran 5m
TEXT -416 408 Left 2 !.ac dec 100 10 10e6
TEXT 736 -80 Left 2 ;For AC analysis, plot V(VOUT)/V(Ve)
