Version 4
SHEET 1 992 772
WIRE -464 16 -496 16
WIRE -272 16 -400 16
WIRE -496 80 -496 16
WIRE -400 80 -496 80
WIRE -272 80 -272 16
WIRE -272 80 -320 80
WIRE -1376 112 -1392 112
WIRE -1280 112 -1296 112
WIRE -432 144 -432 128
WIRE 80 144 80 128
WIRE -704 192 -800 192
WIRE -496 192 -496 80
WIRE -496 192 -624 192
WIRE -464 192 -496 192
WIRE -272 192 -272 80
WIRE -272 192 -304 192
WIRE -240 192 -272 192
WIRE -224 192 -240 192
WIRE -464 224 -496 224
WIRE 80 240 80 224
WIRE -1200 256 -1200 112
WIRE -1120 256 -1200 256
WIRE -1040 256 -1120 256
WIRE -912 256 -976 256
WIRE -704 256 -912 256
WIRE -496 256 -624 256
WIRE -464 256 -496 256
WIRE -272 256 -304 256
WIRE -272 272 -272 256
WIRE -240 272 -272 272
WIRE -224 272 -240 272
WIRE -432 320 -432 304
WIRE -400 320 -400 304
WIRE -496 368 -496 256
WIRE -400 368 -496 368
WIRE -272 368 -272 272
WIRE -272 368 -320 368
WIRE -912 384 -912 256
WIRE -800 384 -800 192
WIRE -1376 416 -1376 400
WIRE -1232 416 -1232 400
WIRE -496 432 -496 368
WIRE -464 432 -496 432
WIRE -272 432 -272 368
WIRE -272 432 -400 432
WIRE -912 496 -912 464
WIRE -800 496 -800 464
WIRE -848 560 -912 560
WIRE -800 560 -848 560
WIRE -848 576 -848 560
FLAG 80 240 0
FLAG -432 320 0
FLAG -1376 416 0
FLAG -1376 320 ocm
FLAG -496 224 ocm
FLAG -224 192 out+
FLAG -224 272 out-
FLAG 80 432 0
FLAG 80 352 out
FLAG -1232 416 0
FLAG -1232 320 icm
FLAG -1392 112 icm
FLAG 80 128 V+
FLAG -432 128 V+
FLAG -848 576 0
FLAG -1120 256 in
SYMBOL voltage -1280 112 R90
WINDOW 123 74 56 VTop 2
WINDOW 39 53 56 VTop 2
WINDOW 0 -32 56 VBottom 2
WINDOW 3 32 56 VTop 2
SYMATTR InstName V3
SYMATTR Value SINE(0 10e-3 10e6 0 0 0 0)
SYMBOL voltage 80 128 R0
WINDOW 123 0 0 Left 2
WINDOW 39 0 0 Left 2
SYMATTR InstName V1
SYMATTR Value 5
SYMBOL res -304 64 R90
WINDOW 0 0 56 VBottom 2
WINDOW 3 32 56 VTop 2
SYMATTR InstName R1
SYMATTR Value 750
SYMBOL res -304 352 R90
WINDOW 0 0 56 VBottom 2
WINDOW 3 32 56 VTop 2
SYMATTR InstName R3
SYMATTR Value 750
SYMBOL opamps\\LTC6409 -400 224 R0
SYMATTR InstName U1
SYMBOL cap -400 0 R90
WINDOW 0 0 32 VBottom 2
WINDOW 3 32 32 VTop 2
SYMATTR InstName C2
SYMATTR Value 1p
SYMBOL cap -400 416 R90
WINDOW 0 0 32 VBottom 2
WINDOW 3 32 32 VTop 2
SYMATTR InstName C3
SYMATTR Value 1p
SYMBOL voltage -1376 304 R0
WINDOW 123 0 0 Left 2
WINDOW 39 0 0 Left 2
SYMATTR InstName V2
SYMATTR Value 2.5
SYMBOL bv 80 336 R0
SYMATTR InstName B1
SYMATTR Value V=V(out+)-V(out-)
SYMBOL voltage -1232 304 R0
WINDOW 123 0 0 Left 2
WINDOW 39 0 0 Left 2
SYMATTR InstName V4
SYMATTR Value 0
SYMBOL cap -976 240 R90
WINDOW 0 0 32 VBottom 2
WINDOW 3 32 32 VTop 2
SYMATTR InstName C1
SYMATTR Value 2.2e-6
SYMBOL res -928 368 R0
SYMATTR InstName R5
SYMATTR Value 100
SYMBOL res -816 368 R0
SYMATTR InstName R6
SYMATTR Value 38.3
SYMBOL res -608 176 R90
WINDOW 0 0 56 VBottom 2
WINDOW 3 -13 14 VTop 2
SYMATTR InstName R7
SYMATTR Value 21.5
SYMBOL res -608 240 R90
WINDOW 0 66 50 VBottom 2
WINDOW 3 -10 16 VTop 2
SYMATTR InstName R8
SYMATTR Value 20
SYMBOL cap -928 496 R0
SYMATTR InstName C4
SYMATTR Value 2.2e-6
SYMBOL cap -816 496 R0
SYMATTR InstName C5
SYMATTR Value 100n
SYMBOL res -1184 96 R90
WINDOW 0 0 56 VBottom 2
WINDOW 3 32 56 VTop 2
SYMATTR InstName R2
SYMATTR Value 0.5
SYMBOL res -256 176 R0
SYMATTR InstName R4
SYMATTR Value 400
TEXT -224 456 Left 2 !.tran 0 100e-6 0 100p
TEXT -216 488 Left 2 !.options maxstep=0.1u
TEXT -208 536 Left 2 !.fourier 10e6 3 -1 V(out)
