Version 4
SHEET 1 1076 1028
WIRE 176 -64 176 -240
WIRE 176 -64 16 -64
WIRE 16 -32 16 -64
WIRE 176 -32 176 -64
WIRE -368 48 -368 -64
WIRE 16 48 16 32
WIRE 176 96 176 48
WIRE 16 144 16 112
WIRE 112 144 16 144
WIRE 16 208 16 144
WIRE -368 320 -368 128
WIRE 176 384 176 192
WIRE 304 384 176 384
WIRE 1072 384 304 384
WIRE 384 528 384 480
WIRE 176 560 176 384
WIRE 384 592 384 528
WIRE 16 784 16 288
WIRE 176 784 176 640
WIRE 384 784 384 672
FLAG -368 320 0
FLAG -368 -64 +V
FLAG 176 -240 +V
FLAG 16 784 0
FLAG 176 784 0
FLAG 384 784 0
FLAG 384 528 Vloadres
FLAG 304 384 Vcc
SYMBOL pnp 112 192 M180
SYMATTR InstName Q1
SYMATTR Value 2N3906
SYMBOL res 160 -48 R0
SYMATTR InstName R1
SYMATTR Value 40
SYMBOL voltage -368 32 R0
WINDOW 123 0 0 Left 2
WINDOW 39 0 0 Left 2
SYMATTR InstName V1
SYMATTR Value 15
SYMBOL diode 0 -32 R0
SYMATTR InstName D1
SYMATTR Value 1N4148
SYMBOL res 0 192 R0
SYMATTR InstName R2
SYMATTR Value 15K
SYMBOL diode 0 48 R0
SYMATTR InstName D2
SYMATTR Value 1N4148
SYMBOL res 160 544 R0
SYMATTR InstName Rcc
SYMATTR Value R=V(Vloadres)
SYMBOL voltage 384 576 R0
WINDOW 123 0 0 Left 2
WINDOW 39 0 0 Left 2
SYMATTR InstName Vloadres
SYMATTR Value PWL(0 10K .1 .01 .2 10K)
TEXT -402 632 Left 2 !.tran .2
TEXT 240 -88 Left 2 ;Q1 replaces a diode.\nAddition of R1, R2, D1, D2 form a crude current limiter.\nVery small area.
TEXT 224 888 Left 2 ;Models a load, such as a chip\nthat may use not much current normally \n(high resistance), but may short (low R).
RECTANGLE Normal 928 352 -176 -176 2
RECTANGLE Normal 928 1024 112 416 2
