Version 4
SHEET 1 2472 704
WIRE -3008 -2944 -3040 -2944
WIRE -2608 -2944 -2944 -2944
WIRE -2800 -2880 -2896 -2880
WIRE -2576 -2880 -2720 -2880
WIRE -3440 -2768 -4192 -2768
WIRE -3328 -2768 -3360 -2768
WIRE -3216 -2768 -3248 -2768
WIRE -3152 -2768 -3216 -2768
WIRE -3040 -2768 -3040 -2944
WIRE -3040 -2768 -3072 -2768
WIRE -3008 -2768 -3040 -2768
WIRE -2896 -2768 -2896 -2880
WIRE -2896 -2768 -2928 -2768
WIRE -2832 -2768 -2896 -2768
WIRE -2736 -2768 -2768 -2768
WIRE -2576 -2768 -2576 -2880
WIRE -2576 -2768 -2656 -2768
WIRE -2544 -2768 -2576 -2768
WIRE -2432 -2768 -2464 -2768
WIRE -2304 -2768 -2432 -2768
WIRE -2144 -2768 -2304 -2768
WIRE -4192 -2752 -4192 -2768
WIRE -3216 -2688 -3216 -2768
WIRE -2432 -2672 -2432 -2768
WIRE -4192 -2640 -4192 -2672
WIRE -4112 -2640 -4192 -2640
WIRE -2800 -2640 -2800 -2656
WIRE -2752 -2640 -2800 -2640
WIRE -3920 -2624 -3968 -2624
WIRE -3808 -2624 -3840 -2624
WIRE -4192 -2608 -4192 -2640
WIRE -3968 -2608 -3968 -2624
WIRE -3840 -2608 -3840 -2624
WIRE -2032 -2592 -2096 -2592
WIRE -2800 -2576 -2800 -2640
WIRE -2096 -2576 -2096 -2592
WIRE -2304 -2560 -2304 -2768
WIRE -2144 -2560 -2144 -2768
WIRE -2896 -2528 -2896 -2768
WIRE -2832 -2528 -2896 -2528
WIRE -2576 -2528 -2576 -2768
WIRE -2576 -2528 -2672 -2528
WIRE -3216 -2512 -3216 -2624
WIRE -3200 -2512 -3216 -2512
WIRE -2432 -2512 -2432 -2608
WIRE -2432 -2512 -2448 -2512
WIRE -2832 -2496 -2928 -2496
WIRE -2832 -2464 -2896 -2464
WIRE -2608 -2464 -2608 -2944
WIRE -2608 -2464 -2672 -2464
WIRE -2096 -2464 -2096 -2496
WIRE -2432 -2432 -2432 -2512
WIRE -3216 -2416 -3216 -2512
WIRE -2800 -2400 -2800 -2416
WIRE -3440 -2272 -3520 -2272
WIRE -3328 -2272 -3360 -2272
WIRE -3216 -2272 -3216 -2352
WIRE -3216 -2272 -3248 -2272
WIRE -3184 -2272 -3216 -2272
WIRE -3056 -2272 -3104 -2272
WIRE -3008 -2272 -3056 -2272
WIRE -2896 -2272 -2896 -2464
WIRE -2896 -2272 -2928 -2272
WIRE -2848 -2272 -2896 -2272
WIRE -2768 -2272 -2784 -2272
WIRE -2608 -2272 -2608 -2464
WIRE -2608 -2272 -2688 -2272
WIRE -2544 -2272 -2608 -2272
WIRE -2432 -2272 -2432 -2368
WIRE -2432 -2272 -2464 -2272
WIRE -2304 -2272 -2304 -2496
WIRE -2304 -2272 -2432 -2272
WIRE -2144 -2272 -2144 -2512
WIRE -2144 -2272 -2304 -2272
WIRE -2896 -2160 -2896 -2272
WIRE -2800 -2160 -2896 -2160
WIRE -2608 -2160 -2608 -2272
WIRE -2608 -2160 -2720 -2160
WIRE -3056 -2096 -3056 -2272
WIRE -2976 -2096 -3056 -2096
WIRE -2576 -2096 -2576 -2528
WIRE -2576 -2096 -2912 -2096
FLAG -3968 -2528 0
FLAG -3920 -2624 V+
FLAG -2032 -2592 o1
FLAG -3200 -2512 0
FLAG -2800 -2656 V+
FLAG -2800 -2400 0
FLAG -2752 -2576 0
FLAG -2928 -2432 0
FLAG -2096 -2464 VOCM
FLAG -3840 -2528 0
FLAG -3808 -2624 VOCM
FLAG -2448 -2512 0
FLAG -4192 -2528 0
FLAG -4112 -2640 VinCM
FLAG -3520 -2272 VinCM
SYMBOL voltage -3968 -2624 R0
WINDOW 0 44 46 Left 2
WINDOW 3 44 73 Left 2
WINDOW 123 0 0 Left 2
WINDOW 39 0 0 Left 2
SYMATTR InstName V4
SYMATTR Value 2.8
SYMBOL e -2096 -2592 R0
WINDOW 0 38 42 Left 2
WINDOW 3 40 67 Left 2
SYMATTR InstName E1
SYMATTR Value 1
SYMBOL cap -3232 -2688 R0
WINDOW 0 42 19 Left 2
WINDOW 3 41 46 Left 2
SYMATTR InstName CA9
SYMATTR Value 220p
SYMBOL cap -3232 -2416 R0
WINDOW 0 36 19 Left 2
WINDOW 3 41 43 Left 2
SYMATTR InstName CA10
SYMATTR Value 220p
SYMBOL res -2912 -2288 R90
WINDOW 0 0 56 VBottom 2
WINDOW 3 32 43 VTop 2
SYMATTR InstName RB1
SYMATTR Value 249
SYMBOL res -2912 -2784 R90
WINDOW 0 0 64 VBottom 2
WINDOW 3 34 41 VTop 2
SYMATTR InstName RA3
SYMATTR Value 249
SYMBOL cap -2768 -2784 R90
WINDOW 0 0 32 VBottom 2
WINDOW 3 32 32 VTop 2
SYMATTR InstName CA5
SYMATTR Value 220p
SYMBOL cap -2784 -2288 R90
WINDOW 0 0 32 VBottom 2
WINDOW 3 32 32 VTop 2
SYMATTR InstName CB1
SYMATTR Value 220p
SYMBOL res -2704 -2896 R90
WINDOW 0 0 56 VBottom 2
WINDOW 3 39 44 VTop 2
SYMATTR InstName RA5
SYMATTR Value 1k
SYMBOL res -2704 -2176 R90
WINDOW 0 0 56 VBottom 2
WINDOW 3 32 39 VTop 2
SYMATTR InstName RB2
SYMATTR Value 1k
SYMBOL cap -2912 -2112 R90
WINDOW 0 0 32 VBottom 2
WINDOW 3 42 29 VTop 2
SYMATTR InstName CB2
SYMATTR Value {C}
SYMBOL cap -2944 -2960 R90
WINDOW 0 0 32 VBottom 2
WINDOW 3 32 32 VTop 2
SYMATTR InstName CA8
SYMATTR Value {C}
SYMBOL res -3056 -2784 R90
WINDOW 0 1 64 VBottom 2
WINDOW 3 37 49 VTop 2
SYMATTR InstName RA6
SYMATTR Value 499
SYMBOL res -3088 -2288 R90
WINDOW 0 0 56 VBottom 2
WINDOW 3 37 43 VTop 2
SYMATTR InstName RB3
SYMATTR Value 499
SYMBOL cap -2768 -2640 R0
WINDOW 0 33 19 Left 2
WINDOW 3 39 43 Left 2
SYMATTR InstName CD1
SYMATTR Value 0.1µ
SYMBOL cap -2944 -2496 R0
WINDOW 0 -48 27 Left 2
WINDOW 3 -51 50 Left 2
SYMATTR InstName CB4
SYMATTR Value 0.1µ
SYMBOL Opamps\\LTC6363 -2768 -2496 R0
WINDOW 0 25 -2 Left 2
WINDOW 3 22 59 Left 2
SYMATTR InstName U2
SYMBOL res -2640 -2784 R90
WINDOW 0 0 56 VBottom 2
WINDOW 3 39 44 VTop 2
SYMATTR InstName RA9
SYMATTR Value 49.9
SYMBOL res -2672 -2288 R90
WINDOW 0 0 56 VBottom 2
WINDOW 3 39 44 VTop 2
SYMATTR InstName RA10
SYMATTR Value 49.9
SYMBOL cap -2448 -2672 R0
WINDOW 0 42 21 Left 2
WINDOW 3 39 48 Left 2
SYMATTR InstName CA11
SYMATTR Value 2.2n
SYMBOL cap -2448 -2432 R0
WINDOW 0 40 18 Left 2
WINDOW 3 41 48 Left 2
SYMATTR InstName CA12
SYMATTR Value 2.2n
SYMBOL res -2448 -2784 R90
WINDOW 0 0 56 VBottom 2
WINDOW 3 39 44 VTop 2
SYMATTR InstName RA13
SYMATTR Value 49.9
SYMBOL res -2448 -2288 R90
WINDOW 0 0 56 VBottom 2
WINDOW 3 39 44 VTop 2
SYMATTR InstName RA14
SYMATTR Value 49.9
SYMBOL voltage -4192 -2768 R0
WINDOW 123 44 56 Left 2
WINDOW 39 0 0 Left 2
WINDOW 0 37 23 Left 2
WINDOW 3 43 86 Left 2
SYMATTR Value2 AC 1
SYMATTR InstName V3
SYMATTR Value PULSE(-0.5 0.5 10u 5n 5n 2.5u 5u)
SYMBOL res -3232 -2784 R90
WINDOW 0 0 56 VBottom 2
WINDOW 3 39 44 VTop 2
SYMATTR InstName RA1
SYMATTR Value 200
SYMBOL voltage -3840 -2624 R0
WINDOW 0 39 42 Left 2
WINDOW 3 44 64 Left 2
WINDOW 123 0 0 Left 2
WINDOW 39 0 0 Left 2
SYMATTR InstName V2
SYMATTR Value 1.4
SYMBOL res -3344 -2784 R90
WINDOW 0 0 56 VBottom 2
WINDOW 3 39 44 VTop 2
SYMATTR InstName RA11
SYMATTR Value 50
SYMBOL res -3232 -2288 R90
WINDOW 0 0 56 VBottom 2
WINDOW 3 39 44 VTop 2
SYMATTR InstName RA2
SYMATTR Value 200
SYMBOL res -3344 -2288 R90
WINDOW 0 0 56 VBottom 2
WINDOW 3 39 44 VTop 2
SYMATTR InstName RA12
SYMATTR Value 50
SYMBOL cap -2320 -2560 R0
WINDOW 0 42 21 Left 2
WINDOW 3 39 48 Left 2
SYMATTR InstName CA1
SYMATTR Value 220p
SYMBOL voltage -4192 -2624 R0
WINDOW 0 44 35 Left 2
WINDOW 3 58 66 Left 2
WINDOW 123 0 0 Left 2
WINDOW 39 0 0 Left 2
SYMATTR InstName V5
SYMATTR Value 0.5
TEXT -4208 -2344 Left 3 ;.tran 0 50u 10u
TEXT -4216 -2280 Left 3 !.ac oct 100 10k 10meg
TEXT -4208 -2416 Left 3 ;.noise V(o1) V3 oct 100 100 100meg
TEXT -4184 -2976 Left 4 ;Two Lab Boards\nI and Q LPF/5599 Driver,\nf-3dB = 1.25MHz.
TEXT -3336 -2920 Left 3 !.param C=220p
