Version 4
SHEET 1 2472 704
WIRE -2992 -2928 -3040 -2928
WIRE -2608 -2928 -2928 -2928
WIRE -2800 -2864 -2896 -2864
WIRE -2544 -2864 -2720 -2864
WIRE -3392 -2768 -3936 -2768
WIRE -3328 -2768 -3392 -2768
WIRE -3216 -2768 -3248 -2768
WIRE -3168 -2768 -3216 -2768
WIRE -3040 -2768 -3040 -2928
WIRE -3040 -2768 -3088 -2768
WIRE -3008 -2768 -3040 -2768
WIRE -2896 -2768 -2896 -2864
WIRE -2896 -2768 -2928 -2768
WIRE -2832 -2768 -2896 -2768
WIRE -2736 -2768 -2768 -2768
WIRE -2544 -2768 -2544 -2864
WIRE -2544 -2768 -2656 -2768
WIRE -2528 -2768 -2544 -2768
WIRE -2416 -2768 -2448 -2768
WIRE -2320 -2768 -2416 -2768
WIRE -2224 -2768 -2320 -2768
WIRE -3936 -2752 -3936 -2768
WIRE -3216 -2688 -3216 -2768
WIRE -2416 -2688 -2416 -2768
WIRE -2800 -2656 -2832 -2656
WIRE -2768 -2656 -2800 -2656
WIRE -2704 -2656 -2768 -2656
WIRE -3840 -2624 -3872 -2624
WIRE -3872 -2608 -3872 -2624
WIRE -2800 -2592 -2800 -2656
WIRE -2144 -2576 -2176 -2576
WIRE -2320 -2560 -2320 -2768
WIRE -2176 -2560 -2176 -2576
WIRE -2896 -2544 -2896 -2768
WIRE -2832 -2544 -2896 -2544
WIRE -2544 -2544 -2544 -2768
WIRE -2544 -2544 -2672 -2544
WIRE -2224 -2544 -2224 -2768
WIRE -2416 -2528 -2416 -2624
WIRE -2400 -2528 -2416 -2528
WIRE -3216 -2512 -3216 -2624
WIRE -3200 -2512 -3216 -2512
WIRE -3056 -2512 -3088 -2512
WIRE -2992 -2512 -3056 -2512
WIRE -2928 -2512 -2992 -2512
WIRE -2832 -2512 -2928 -2512
WIRE -2832 -2480 -2896 -2480
WIRE -2608 -2480 -2608 -2928
WIRE -2608 -2480 -2672 -2480
WIRE -2416 -2448 -2416 -2528
WIRE -3216 -2432 -3216 -2512
WIRE -3328 -2304 -3344 -2304
WIRE -3216 -2304 -3216 -2368
WIRE -3216 -2304 -3248 -2304
WIRE -3184 -2304 -3216 -2304
WIRE -3056 -2304 -3104 -2304
WIRE -3024 -2304 -3056 -2304
WIRE -2896 -2304 -2896 -2480
WIRE -2896 -2304 -2944 -2304
WIRE -2864 -2304 -2896 -2304
WIRE -2784 -2304 -2800 -2304
WIRE -2608 -2304 -2608 -2480
WIRE -2608 -2304 -2704 -2304
WIRE -2528 -2304 -2608 -2304
WIRE -2416 -2304 -2416 -2384
WIRE -2416 -2304 -2448 -2304
WIRE -2320 -2304 -2320 -2496
WIRE -2320 -2304 -2416 -2304
WIRE -2224 -2304 -2224 -2496
WIRE -2224 -2304 -2320 -2304
WIRE -2896 -2208 -2896 -2304
WIRE -2800 -2208 -2896 -2208
WIRE -2608 -2208 -2608 -2304
WIRE -2608 -2208 -2720 -2208
WIRE -3056 -2144 -3056 -2304
WIRE -2992 -2144 -3056 -2144
WIRE -2544 -2144 -2544 -2544
WIRE -2544 -2144 -2928 -2144
FLAG -3872 -2528 0
FLAG -3840 -2624 V+
FLAG -2144 -2576 oDiff
FLAG -3200 -2512 0
FLAG -2832 -2656 V+
FLAG -2800 -2432 0
FLAG -2768 -2592 0
FLAG -2400 -2528 0
FLAG -3936 -2672 0
FLAG -3088 -2432 0
FLAG -3056 -2512 VOCM
FLAG -3344 -2304 0
FLAG -2176 -2480 0
FLAG -3392 -2768 in
FLAG -2704 -2592 0
FLAG -2992 -2448 0
FLAG -2928 -2448 0
SYMBOL voltage -3872 -2624 R0
WINDOW 0 46 45 Left 2
WINDOW 3 44 72 Left 2
WINDOW 123 0 0 Left 2
WINDOW 39 0 0 Left 2
SYMATTR InstName V2
SYMATTR Value 5
SYMBOL cap -3232 -2688 R0
WINDOW 0 36 27 Left 2
WINDOW 3 30 54 Left 2
SYMATTR InstName CA9
SYMATTR Value {C1}
SYMBOL cap -3232 -2432 R0
WINDOW 0 36 22 Left 2
WINDOW 3 46 47 Left 2
SYMATTR InstName CA10
SYMATTR Value {C1}
SYMBOL res -2928 -2320 R90
WINDOW 0 0 56 VBottom 2
WINDOW 3 32 43 VTop 2
SYMATTR InstName RB1
SYMATTR Value 174
SYMBOL res -2912 -2784 R90
WINDOW 0 0 64 VBottom 2
WINDOW 3 34 41 VTop 2
SYMATTR InstName RA3
SYMATTR Value 174
SYMBOL cap -2768 -2784 R90
WINDOW 0 0 32 VBottom 2
WINDOW 3 32 32 VTop 2
SYMATTR InstName CA5
SYMATTR Value {C2}
SYMBOL cap -2800 -2320 R90
WINDOW 0 0 32 VBottom 2
WINDOW 3 32 32 VTop 2
SYMATTR InstName CB1
SYMATTR Value {C2}
SYMBOL res -2704 -2880 R90
WINDOW 0 0 56 VBottom 2
WINDOW 3 39 44 VTop 2
SYMATTR InstName RA5
SYMATTR Value 750
SYMBOL res -2704 -2224 R90
WINDOW 0 0 56 VBottom 2
WINDOW 3 34 47 VTop 2
SYMATTR InstName RB2
SYMATTR Value 750
SYMBOL cap -2928 -2160 R90
WINDOW 0 0 32 VBottom 2
WINDOW 3 32 28 VTop 2
SYMATTR InstName CB2
SYMATTR Value {C2}
SYMBOL cap -2928 -2944 R90
WINDOW 0 0 32 VBottom 2
WINDOW 3 32 32 VTop 2
SYMATTR InstName CA8
SYMATTR Value {C2}
SYMBOL res -3072 -2784 R90
WINDOW 0 1 64 VBottom 2
WINDOW 3 37 49 VTop 2
SYMATTR InstName RA6
SYMATTR Value 665
SYMBOL res -3088 -2320 R90
WINDOW 0 0 56 VBottom 2
WINDOW 3 37 43 VTop 2
SYMATTR InstName RB3
SYMATTR Value 665
SYMBOL cap -2784 -2656 R0
WINDOW 0 43 25 Invisible 2
WINDOW 3 30 14 Left 2
SYMATTR InstName CD1
SYMATTR Value 0.1µ
SYMBOL Opamps\\LTC6363 -2768 -2512 R0
WINDOW 0 25 -2 Left 2
WINDOW 3 22 59 Left 2
SYMATTR InstName U2
SYMBOL res -2640 -2784 R90
WINDOW 0 0 56 VBottom 2
WINDOW 3 39 44 VTop 2
SYMATTR InstName RA9
SYMATTR Value 49.9
SYMBOL res -2688 -2320 R90
WINDOW 0 0 56 VBottom 2
WINDOW 3 39 44 VTop 2
SYMATTR InstName RA10
SYMATTR Value 49.9
SYMBOL cap -2432 -2688 R0
WINDOW 0 42 21 Left 2
WINDOW 3 39 48 Left 2
SYMATTR InstName CA11
SYMATTR Value 2.7n
SYMBOL cap -2432 -2448 R0
WINDOW 0 40 18 Left 2
WINDOW 3 41 48 Left 2
SYMATTR InstName CA12
SYMATTR Value 2.7n
SYMBOL res -2432 -2784 R90
WINDOW 0 0 56 VBottom 2
WINDOW 3 39 44 VTop 2
SYMATTR InstName RA13
SYMATTR Value 30.1
SYMBOL res -2432 -2320 R90
WINDOW 0 0 56 VBottom 2
WINDOW 3 39 44 VTop 2
SYMATTR InstName RA14
SYMATTR Value 30.1
SYMBOL voltage -3936 -2768 R0
WINDOW 123 42 48 Left 2
WINDOW 39 0 0 Left 2
WINDOW 0 34 23 Left 2
WINDOW 3 39 75 Left 2
SYMATTR Value2 AC 1
SYMATTR InstName V1
SYMATTR Value SINE(0 5 2k 1m 0 0)
SYMBOL res -3232 -2784 R90
WINDOW 0 0 56 VBottom 2
WINDOW 3 33 46 VTop 2
SYMATTR InstName RA1
SYMATTR Value 100
SYMBOL res -3232 -2320 R90
WINDOW 0 0 56 VBottom 2
WINDOW 3 34 49 VTop 2
SYMATTR InstName RA2
SYMATTR Value 100
SYMBOL voltage -3088 -2528 R0
WINDOW 0 35 37 Left 2
WINDOW 3 38 60 Left 2
WINDOW 123 0 0 Left 2
WINDOW 39 0 0 Left 2
SYMATTR InstName V3
SYMATTR Value 2.5
SYMBOL cap -2336 -2560 R0
WINDOW 0 40 18 Left 2
WINDOW 3 41 48 Left 2
SYMATTR InstName CA1
SYMATTR Value 2.7n
SYMBOL e2 -2176 -2576 R0
WINDOW 0 40 42 Left 2
WINDOW 3 44 68 Left 2
SYMATTR InstName E1
SYMATTR Value 1
SYMBOL cap -2720 -2656 R0
WINDOW 0 43 25 Invisible 2
WINDOW 3 30 14 Left 2
SYMATTR InstName CD2
SYMATTR Value 1µ
SYMBOL cap -3008 -2512 R0
WINDOW 0 43 25 Invisible 2
WINDOW 3 30 14 Left 2
SYMATTR InstName CD3
SYMATTR Value 0.1µ
SYMBOL cap -2944 -2512 R0
WINDOW 0 43 25 Invisible 2
WINDOW 3 30 14 Left 2
SYMATTR InstName CD4
SYMATTR Value 1µ
TEXT -3904 -2448 Left 3 ;.tran 5m
TEXT -3904 -2352 Left 3 !.ac oct 100 1k 10meg
TEXT -3904 -2400 Left 3 ;.noise V(oDiff) V1 oct 100 100 100meg
TEXT -3424 -2568 Left 3 !.param C1=10n\n.param C2=2.7n
TEXT -3544 -2912 Left 3 ;LTC63636 Differential Lowpass Filter\nf-3dB=168kHz, Passband Gain=0.8
TEXT -3720 -2784 Left 3 ;Vin Range = -5V to 5V
