Version 4
SHEET 1 2540 7776
WIRE 704 -48 704 -80
WIRE 800 -48 800 -80
WIRE 896 -48 896 -80
WIRE 992 -48 992 -80
WIRE 1440 16 1152 16
WIRE 1584 16 1520 16
WIRE 1680 16 1584 16
WIRE 1840 16 1760 16
WIRE 704 64 704 32
WIRE 800 64 800 32
WIRE 800 64 704 64
WIRE 896 64 896 32
WIRE 896 64 800 64
WIRE 992 64 992 32
WIRE 992 64 896 64
WIRE 800 80 800 64
WIRE 2048 80 2048 64
WIRE 1840 160 1840 16
WIRE 1872 160 1840 160
WIRE 2048 160 2048 144
WIRE 2048 160 1952 160
WIRE 2096 160 2048 160
WIRE 1584 176 1584 16
WIRE 1632 176 1584 176
WIRE 1840 176 1840 160
WIRE 1840 176 1792 176
WIRE 2048 176 2048 160
WIRE 1616 208 1360 208
WIRE 1632 208 1616 208
WIRE 1152 240 1152 16
WIRE 1360 240 1360 208
WIRE 1632 240 1584 240
WIRE 1840 240 1792 240
WIRE 1840 256 1840 240
WIRE 1872 256 1840 256
WIRE 2048 256 2048 240
WIRE 2048 256 1952 256
WIRE 2096 256 2048 256
WIRE 2048 272 2048 256
WIRE 1152 288 1152 240
WIRE 2048 352 2048 336
WIRE 1152 416 1152 368
WIRE 1376 416 1152 416
WIRE 1440 416 1376 416
WIRE 1584 416 1584 240
WIRE 1584 416 1520 416
WIRE 1680 416 1584 416
WIRE 1840 416 1840 256
WIRE 1840 416 1760 416
WIRE 1376 448 1376 416
FLAG 2096 256 Vo-
FLAG 2096 160 Vo+
FLAG 2048 352 0
FLAG 2048 64 0
FLAG 1664 128 V+8
FLAG 1664 288 V-3
FLAG 1616 208 V+2.048
FLAG 1696 288 V+8
FLAG 1152 240 Vi
FLAG 1376 448 0
FLAG 1360 320 0
FLAG 992 -80 V-8
FLAG 800 -80 V-3
FLAG 704 -80 V+3.3
FLAG 896 -80 V+8
FLAG 800 80 0
SYMBOL Opamps\\LTC6363 1696 208 R0
SYMATTR InstName U32
SYMBOL cap 2064 240 R180
WINDOW 0 24 56 Left 2
WINDOW 3 24 8 Left 2
SYMATTR InstName C191
SYMATTR Value 680p
SYMBOL cap 2064 144 R180
WINDOW 0 24 56 Left 2
WINDOW 3 24 8 Left 2
SYMATTR InstName C190
SYMATTR Value 680p
SYMBOL cap 2064 336 R180
WINDOW 0 24 56 Left 2
WINDOW 3 24 8 Left 2
SYMATTR InstName C194
SYMATTR Value 680p
SYMBOL res 1536 0 R90
WINDOW 0 0 56 VBottom 2
WINDOW 3 32 56 VTop 2
SYMATTR InstName R102
SYMATTR Value 1K
SYMBOL res 1968 144 R90
WINDOW 0 0 56 VBottom 2
WINDOW 3 32 56 VTop 2
SYMATTR InstName R100
SYMATTR Value 30.1
SYMBOL res 1968 240 R90
WINDOW 0 0 56 VBottom 2
WINDOW 3 32 56 VTop 2
SYMATTR InstName R101
SYMATTR Value 30.1
SYMBOL res 1776 0 R90
WINDOW 0 0 56 VBottom 2
WINDOW 3 32 56 VTop 2
SYMATTR InstName R103
SYMATTR Value 1K
SYMBOL res 1536 400 R90
WINDOW 0 0 56 VBottom 2
WINDOW 3 32 56 VTop 2
SYMATTR InstName R96
SYMATTR Value 1K
SYMBOL res 1776 400 R90
WINDOW 0 0 56 VBottom 2
WINDOW 3 32 56 VTop 2
SYMATTR InstName R97
SYMATTR Value 1K
SYMBOL voltage 1152 272 R0
WINDOW 123 11 111 Left 2
WINDOW 39 0 0 Left 2
WINDOW 3 -197 109 Left 2
SYMATTR Value2 AC 1
SYMATTR Value SINE(0 1 1000 0)
SYMATTR InstName Vi_src1
SYMBOL voltage 1360 224 R0
WINDOW 123 0 0 Left 0
WINDOW 39 0 0 Left 0
SYMATTR InstName V1
SYMATTR Value 2.048
SYMBOL voltage 704 -64 R0
SYMATTR InstName V2
SYMATTR Value 3.3
SYMBOL voltage 896 -64 R0
SYMATTR InstName V3
SYMATTR Value 8
SYMBOL voltage 992 48 R180
WINDOW 0 -39 98 Left 2
WINDOW 3 -44 16 Left 2
SYMATTR InstName V4
SYMATTR Value 8
SYMBOL voltage 800 48 R180
WINDOW 0 -45 99 Left 2
WINDOW 3 -47 14 Left 2
WINDOW 123 0 0 Left 2
WINDOW 39 0 0 Left 2
SYMATTR InstName V5
SYMATTR Value 3
TEXT 1232 -216 Left 2 !.tran 0 10m 0 1u startup
TEXT 1232 -280 Left 2 !;ac dec 100 1 10mega
TEXT 1232 -248 Left 2 !;noise V(Vac) Vi_src dec 100 1 1mega
TEXT 1392 -56 Left 2 ;Single-ended to Differential Conversion
