Version 4
SHEET 1 3232 872
WIRE 1344 -160 1232 -160
WIRE 0 -144 0 -192
WIRE 592 -144 496 -144
WIRE 736 -144 656 -144
WIRE 816 -144 736 -144
WIRE 912 -144 880 -144
WIRE 1232 -112 1232 -160
WIRE 1184 -96 1024 -96
WIRE 496 -64 496 -144
WIRE 528 -64 496 -64
WIRE 736 -64 736 -144
WIRE 736 -64 608 -64
WIRE 800 -64 736 -64
WIRE 912 -64 912 -144
WIRE 912 -64 880 -64
WIRE 0 -16 0 -64
WIRE 0 -16 -32 -16
WIRE 0 0 0 -16
WIRE 624 0 624 -16
WIRE 1184 0 1184 -48
WIRE 1216 0 1184 0
WIRE 1232 0 1232 -32
WIRE 1232 0 1216 0
WIRE 1216 16 1216 0
WIRE -32 48 -32 -16
WIRE 0 48 -32 48
WIRE 496 48 496 -64
WIRE 592 48 496 48
WIRE 912 80 912 -64
WIRE 912 80 736 80
WIRE 1024 80 1024 -96
WIRE 1024 80 912 80
WIRE 0 96 0 48
WIRE 592 112 560 112
WIRE 320 128 240 128
WIRE 496 128 496 48
WIRE 496 128 320 128
WIRE 320 144 320 128
WIRE 560 144 560 112
WIRE 240 160 240 128
WIRE 672 176 672 160
WIRE 624 192 624 160
WIRE 0 240 0 176
WIRE 240 256 240 240
WIRE 272 256 240 256
WIRE 320 256 320 208
WIRE 320 256 272 256
WIRE 272 288 272 256
FLAG 0 0 0
FLAG 272 288 0
FLAG 560 144 0
FLAG 0 -192 vcc
FLAG 624 -16 vcc
FLAG 624 192 vee
FLAG 0 240 vee
FLAG 1216 16 0
SYMBOL voltage 0 -160 R0
SYMATTR InstName V1
SYMATTR Value 4
SYMBOL current 240 160 R0
WINDOW 3 -269 170 Left 2
WINDOW 123 -45 -59 Left 2
WINDOW 39 0 0 Left 2
SYMATTR Value PWL(0us 0uA 1us 0uA 1.001us 10nA 2us 10nA 2.001us 100nA 3us 100nA 3.001us 1uA 4us 1uA 4.001us 10uA 5us 10uA 5.001us 100uA 6us 100uA 6.001us 1mA)
SYMATTR Value2 AC 200nA
SYMATTR InstName I1
SYMBOL voltage 0 80 R0
SYMATTR InstName V2
SYMATTR Value 1
SYMBOL cap 304 144 R0
SYMATTR InstName C2
SYMATTR Value 3.5pF
SYMBOL schottky 880 -160 R90
WINDOW 0 0 32 VBottom 2
WINDOW 3 32 32 VTop 2
SYMATTR InstName D1
SYMATTR Value MMBD101
SYMATTR Description Diode
SYMATTR Type diode
SYMBOL res 896 -80 R90
WINDOW 0 0 56 VBottom 2
WINDOW 3 32 56 VTop 2
SYMATTR InstName R4
SYMATTR Value 100k
SYMBOL Opamps\\LTC6268-10 624 80 R0
SYMATTR InstName U1
SYMBOL res 624 -80 R90
WINDOW 0 0 56 VBottom 2
WINDOW 3 32 56 VTop 2
SYMATTR InstName R1
SYMATTR Value 2k
SYMBOL cap 656 -160 R90
WINDOW 0 0 32 VBottom 2
WINDOW 3 32 32 VTop 2
SYMATTR InstName C3
SYMATTR Value .35p
SYMBOL e 1232 -128 R0
SYMATTR InstName E1
SYMATTR Value laplace=(3*s**2+1)/(s**-1)
TEXT 208 -104 Left 2 !;tran 7us
TEXT 688 200 Left 2 !.model MMBD101 D(+IS=1e-07   RS=2.51244   N=1.71158   EG=0.63401\n+XTI=4 BV=7 IBV=0.04e-6   CJO=9.20838e-13\n+VJ=1.5 M=0.2 FC=0.5 TT=0\n+KF=0 AF=1)
TEXT 168 -64 Left 2 !.ac oct 100 1 100000
