Version 4
SHEET 1 2092 1588
WIRE -432 -576 -752 -576
WIRE -672 -528 -688 -528
WIRE -576 -528 -672 -528
WIRE -576 -464 -576 -480
WIRE -672 -448 -672 -528
WIRE -752 -400 -752 -576
WIRE -704 -400 -752 -400
WIRE -432 -368 -432 -576
WIRE -432 -368 -560 -368
WIRE -1728 -336 -2496 -336
WIRE -1664 -336 -1728 -336
WIRE -1248 -336 -1440 -336
WIRE -1104 -336 -1168 -336
WIRE -1072 -336 -1104 -336
WIRE -928 -336 -992 -336
WIRE -896 -336 -928 -336
WIRE -752 -336 -816 -336
WIRE -704 -336 -752 -336
WIRE -2496 -320 -2496 -336
WIRE -1104 -320 -1104 -336
WIRE -752 -320 -752 -336
WIRE -928 -304 -928 -336
WIRE -672 -272 -672 -288
WIRE -1664 -256 -1680 -256
WIRE -1392 -256 -1440 -256
WIRE -1360 -256 -1392 -256
WIRE -1104 -240 -1104 -256
WIRE -752 -240 -752 -256
WIRE -2464 -176 -2496 -176
WIRE -1808 -176 -1856 -176
WIRE -1664 -176 -1728 -176
WIRE -1392 -176 -1392 -192
WIRE -1392 -176 -1440 -176
WIRE -928 -176 -928 -240
WIRE -928 -176 -1296 -176
WIRE -432 -176 -432 -368
WIRE -432 -176 -928 -176
WIRE -2496 -160 -2496 -176
WIRE -1392 -160 -1392 -176
WIRE -432 -128 -752 -128
WIRE -672 -80 -688 -80
WIRE -576 -80 -672 -80
WIRE -576 -16 -576 -32
WIRE -672 0 -672 -80
WIRE -752 48 -752 -128
WIRE -704 48 -752 48
WIRE -432 80 -432 -128
WIRE -432 80 -560 80
WIRE -400 80 -432 80
WIRE -256 80 -320 80
WIRE -208 80 -256 80
WIRE -256 96 -256 80
WIRE -1296 112 -1296 -176
WIRE -1248 112 -1296 112
WIRE -1104 112 -1168 112
WIRE -1072 112 -1104 112
WIRE -928 112 -992 112
WIRE -896 112 -928 112
WIRE -752 112 -816 112
WIRE -704 112 -752 112
WIRE -1104 128 -1104 112
WIRE -752 128 -752 112
WIRE -928 160 -928 112
WIRE -672 176 -672 160
WIRE -256 176 -256 160
WIRE -1104 208 -1104 192
WIRE -752 208 -752 192
WIRE -928 288 -928 224
WIRE -432 288 -432 80
WIRE -432 288 -928 288
FLAG -2496 -240 0
FLAG -2496 -80 0
FLAG -1680 -256 0
FLAG -1856 -176 0
FLAG -2464 -176 Vcc
FLAG -1360 -256 Vcc
FLAG -672 -272 0
FLAG -1104 -240 0
FLAG -752 -240 0
FLAG -688 -528 Vcc
FLAG -576 -464 0
FLAG -1392 -160 0
FLAG -1728 -336 Fin
FLAG -208 80 Vout
FLAG -256 176 0
FLAG -672 176 0
FLAG -1104 208 0
FLAG -752 208 0
FLAG -688 -80 Vcc
FLAG -576 -16 0
SYMBOL res -1712 -192 R90
WINDOW 0 3 65 VBottom 2
WINDOW 3 36 35 VTop 2
SYMATTR InstName R1
SYMATTR Value 49.9k
SYMBOL voltage -2496 -176 R0
WINDOW 123 0 0 Left 2
WINDOW 39 0 0 Left 2
WINDOW 0 42 40 Left 2
WINDOW 3 40 71 Left 2
SYMATTR InstName V2
SYMATTR Value 5
SYMBOL voltage -2496 -336 R0
WINDOW 123 74 56 VTop 2
WINDOW 39 53 56 VTop 2
WINDOW 3 334 97 Bottom 2
WINDOW 0 61 61 Bottom 2
SYMATTR Value PULSE(0 3 5m 10n 10n {1/(2*fin)} {1/fin})
SYMATTR InstName V1
SYMBOL SpecialFunctions\\LTC6993-1 -1552 -256 R0
SYMATTR InstName U1
SYMBOL res -800 -352 R90
WINDOW 0 3 65 VBottom 2
WINDOW 3 31 49 VTop 2
SYMATTR InstName R2
SYMATTR Value {R}
SYMBOL cap -736 -256 R180
WINDOW 0 40 40 Left 2
WINDOW 3 38 13 Left 2
SYMATTR InstName C1
SYMATTR Value {C}
SYMBOL res -976 -352 R90
WINDOW 0 2 66 VBottom 2
WINDOW 3 32 49 VTop 2
SYMATTR InstName R3
SYMATTR Value {R}
SYMBOL cap -912 -240 R180
WINDOW 0 41 38 Left 2
WINDOW 3 39 11 Left 2
SYMATTR InstName C2
SYMATTR Value {C}
SYMBOL res -1152 -352 R90
WINDOW 0 2 66 VBottom 2
WINDOW 3 32 49 VTop 2
SYMATTR InstName R5
SYMATTR Value {R}
SYMBOL cap -1088 -256 R180
WINDOW 0 41 38 Left 2
WINDOW 3 39 11 Left 2
SYMATTR InstName C4
SYMATTR Value {C}
SYMBOL cap -560 -464 R180
WINDOW 0 40 37 Invisible 2
WINDOW 3 41 31 Left 2
SYMATTR InstName C8
SYMATTR Value 0.1µ
SYMBOL cap -1376 -192 R180
WINDOW 0 40 37 Invisible 2
WINDOW 3 -54 8 Left 2
SYMATTR InstName C9
SYMATTR Value 0.1µ
SYMBOL res -304 64 R90
WINDOW 0 3 68 VBottom 2
WINDOW 3 33 48 VTop 2
SYMATTR InstName R10
SYMATTR Value 100
SYMBOL cap -240 160 R180
WINDOW 0 41 38 Left 2
WINDOW 3 39 11 Left 2
SYMATTR InstName C3
SYMATTR Value {C}
SYMBOL Opamps\\LTC6087 -672 -368 R0
WINDOW 0 120 -13 Left 2
WINDOW 3 107 19 Left 2
SYMATTR InstName U2
SYMBOL res -800 96 R90
WINDOW 0 3 65 VBottom 2
WINDOW 3 31 49 VTop 2
SYMATTR InstName R4
SYMATTR Value {R}
SYMBOL cap -736 192 R180
WINDOW 0 40 40 Left 2
WINDOW 3 38 13 Left 2
SYMATTR InstName C5
SYMATTR Value {C}
SYMBOL res -976 96 R90
WINDOW 0 2 66 VBottom 2
WINDOW 3 32 49 VTop 2
SYMATTR InstName R6
SYMATTR Value {R}
SYMBOL cap -912 224 R180
WINDOW 0 41 38 Left 2
WINDOW 3 39 11 Left 2
SYMATTR InstName C6
SYMATTR Value {C}
SYMBOL res -1152 96 R90
WINDOW 0 2 66 VBottom 2
WINDOW 3 32 49 VTop 2
SYMATTR InstName R7
SYMATTR Value {R}
SYMBOL cap -1088 192 R180
WINDOW 0 41 38 Left 2
WINDOW 3 39 11 Left 2
SYMATTR InstName C7
SYMATTR Value {C}
SYMBOL cap -560 -16 R180
WINDOW 0 40 37 Invisible 2
WINDOW 3 41 31 Left 2
SYMATTR InstName C10
SYMATTR Value 0.1µ
SYMBOL Opamps\\LTC6087 -672 80 R0
WINDOW 0 120 -13 Left 2
WINDOW 3 107 19 Left 2
SYMATTR InstName U3
TEXT -2368 -72 Left 2 !.tran 50m
TEXT -2112 -304 Left 3 !.param fin=10k
TEXT -1592 40 Left 3 !.param R=49.9k\n.param C=5.6n
TEXT -1664 -480 Left 3 ;F to V Converter\nHighest accuracy range\n10kHz to 990KHz
TEXT -136 80 Left 2 ;To ADC
TEXT -208 120 Left 3 ;Vout = Vcc x 1^-6 x fin
