Version 4
SHEET 1 880 680
WIRE 192 16 0 16
WIRE 160 64 128 64
WIRE 288 64 240 64
WIRE 128 96 128 64
WIRE 192 112 192 16
WIRE 128 128 128 96
WIRE 160 128 128 128
WIRE 272 144 224 144
WIRE 288 144 288 64
WIRE 288 144 272 144
WIRE 64 160 16 160
WIRE 160 160 64 160
WIRE 16 224 16 160
FLAG 0 96 0
FLAG 16 304 0
FLAG 192 176 0
FLAG 272 144 out
FLAG 64 160 vp
FLAG 128 96 vn
SYMBOL Opamps\\LT6237 192 144 R0
SYMATTR InstName U1
SYMBOL voltage 16 208 R0
WINDOW 123 24 124 Left 2
WINDOW 39 0 0 Left 2
SYMATTR Value2 AC 1
SYMATTR InstName V1
SYMATTR Value {Vcm}
SYMBOL voltage 0 0 R0
WINDOW 123 0 0 Left 2
WINDOW 39 0 0 Left 2
SYMATTR InstName V2
SYMATTR Value {VCC}
SYMBOL res 256 48 R90
WINDOW 0 0 56 VBottom 2
WINDOW 3 -31 -43 VTop 2
SYMATTR InstName R1
SYMATTR Value 1k temp=-273
TEXT 64 -152 Left 2 !.op
TEXT 168 -208 Left 2 !.param VCC=3\n.step param Vcm 1.0 2.5 0.1\n.option mindeltagmin 1e-3
