Version 4
SHEET 1 2212 2336
WIRE -1344 -544 -1456 -544
WIRE -1216 -544 -1264 -544
WIRE -1120 -544 -1136 -544
WIRE -688 -544 -1120 -544
WIRE -1120 -400 -1120 -544
WIRE -1120 -288 -1120 -336
WIRE -1456 -224 -1456 -544
WIRE -688 -224 -688 -544
WIRE 496 -96 208 -96
WIRE 688 -96 496 -96
WIRE 688 -80 688 -96
WIRE 208 -64 208 -96
WIRE 496 -64 496 -96
WIRE -1456 -48 -1456 -144
WIRE -688 -16 -688 -144
WIRE -688 -16 -816 -16
WIRE -448 -16 -688 -16
WIRE 96 -16 -384 -16
WIRE -688 0 -688 -16
WIRE -816 16 -816 -16
WIRE 688 16 688 0
WIRE 0 64 -16 64
WIRE 96 64 64 64
WIRE -816 96 -816 80
WIRE -688 96 -688 80
WIRE 720 144 592 144
WIRE 864 144 800 144
WIRE 864 160 864 144
WIRE 0 224 -16 224
WIRE 96 224 64 224
WIRE 864 256 864 240
WIRE 0 384 -16 384
WIRE 96 384 64 384
WIRE 0 544 -16 544
WIRE 96 544 64 544
WIRE 208 624 208 608
WIRE 304 624 304 608
WIRE 400 624 400 608
WIRE 496 704 496 608
WIRE 496 704 64 704
WIRE -208 720 -256 720
WIRE 0 720 -128 720
WIRE 656 736 64 736
WIRE 0 784 0 752
FLAG 208 624 0
FLAG 688 16 0
FLAG -16 64 0
FLAG -16 224 0
FLAG -16 384 0
FLAG -16 544 0
FLAG 304 624 0
FLAG 400 624 0
FLAG 864 144 OUT
FLAG -688 -16 IN1
FLAG 0 784 0
FLAG -256 720 0
FLAG -688 96 0
FLAG 864 256 0
FLAG -1456 -48 0
FLAG -816 96 0
FLAG -1120 -288 0
SYMBOL voltage 688 -96 R0
WINDOW 123 0 0 Left 2
WINDOW 39 0 0 Left 2
SYMATTR InstName V1
SYMATTR Value 5
SYMBOL cap 64 48 R90
WINDOW 0 0 32 VBottom 2
WINDOW 3 32 32 VTop 2
SYMATTR InstName C1
SYMATTR Value 1µ
SYMBOL cap 64 208 R90
WINDOW 0 0 32 VBottom 2
WINDOW 3 32 32 VTop 2
SYMATTR InstName C2
SYMATTR Value 1µ
SYMBOL cap 64 368 R90
WINDOW 0 0 32 VBottom 2
WINDOW 3 32 32 VTop 2
SYMATTR InstName C3
SYMATTR Value 1µ
SYMBOL cap 64 528 R90
WINDOW 0 0 32 VBottom 2
WINDOW 3 32 32 VTop 2
SYMATTR InstName C4
SYMATTR Value 1µ
SYMBOL LTC6561 352 240 R0
SYMATTR InstName U1
SYMBOL res 816 128 R90
WINDOW 0 0 56 VBottom 2
WINDOW 3 32 56 VTop 2
SYMATTR InstName R2
SYMATTR Value 50
SYMBOL digital\\buf 0 656 R0
WINDOW 3 60 96 Left 2
WINDOW 123 49 118 Left 2
WINDOW 40 25 139 Left 2
SYMATTR Value Ref=.5
SYMATTR Value2 Trise=1n
SYMATTR SpiceLine2 Vlow=0 Vhigh=5
SYMATTR InstName A1
SYMBOL voltage -112 720 R90
WINDOW 123 74 56 VTop 2
WINDOW 39 53 56 VTop 2
WINDOW 0 -32 56 VBottom 2
WINDOW 3 32 56 VTop 2
SYMATTR InstName V4
SYMATTR Value PWL(0 0 50n 0 +.1n 0)
SYMBOL current -688 0 R0
WINDOW 123 24 122 Left 2
WINDOW 39 24 101 Left 2
SYMATTR Value PULSE(0 {Ipeak} 1.5n .1n .1n 6.5n 200u)
SYMATTR InstName I3
SYMBOL res 848 144 R0
SYMATTR InstName R3
SYMATTR Value 50
SYMBOL voltage -1456 -240 R0
WINDOW 123 0 0 Left 0
WINDOW 39 0 0 Left 0
SYMATTR InstName V2
SYMATTR Value 150
SYMBOL cap -384 -32 R90
WINDOW 0 0 32 VBottom 2
WINDOW 3 32 32 VTop 2
SYMATTR InstName C6
SYMATTR Value 100p
SYMBOL cap -832 16 R0
SYMATTR InstName C7
SYMATTR Value .1p
SYMBOL res -704 -240 R0
SYMATTR InstName R4
SYMATTR Value 1K
SYMBOL voltage -1248 -544 R90
WINDOW 0 -32 56 VBottom 2
WINDOW 3 32 56 VTop 2
WINDOW 123 0 0 Left 0
WINDOW 39 0 0 Left 0
SYMATTR InstName V3
SYMATTR Value PULSE(-.1 .1 100u 24u 24u 1u 1u)
SYMBOL cap -1136 -400 R0
SYMATTR InstName C5
SYMATTR Value 200m
SYMBOL res -1120 -560 R90
WINDOW 0 0 56 VBottom 2
WINDOW 3 32 56 VTop 2
SYMATTR InstName R6
SYMATTR Value 10K
TEXT -672 400 Left 2 !.tran 5000u
TEXT -16 -72 Bottom 2 ;Current Inputs from Avalance Photodiodes\nTop instance In1 selected \nBottom instance In4 selected
TEXT -736 200 Left 2 ;ACIN5\nUse a small R4 Quenching Resistor\nplus a method of limiting current.
TEXT -2048 64 Left 2 ;R4 seems to matter.\nWith large R4, of course the recovery time is slower.\nWith small R4, of course, the recovery time is faster. \n \nBut with small R4, the current into C6 after the pulse, during pulse extension is larger.  \nWith small R4, C6 voltage can rise up so that IN1 voltage is above 1.55V.\nWhen this happens, more current needs to flow back into C6 (right to left).\nThis causes an unnatural extension of the output pulse to even longer, while \nthat transient unwinds.  Almost as though the 1K was so low that C6 was allowed to over-recharge\nwhile the output pulse extension is happening.\n \nWith large R4, the current into C6 after pulse, during pulse extension, is smaller.\nSo after the pulse extension is over, the In1 will rise above 1.55.\nC6 does not fully recover yet from the original pulse.\nWhen this happens, VOUT goes down, pegged to zero, while the In1 discharges back to the proper spot.\nMeanwhile, C6 continues to recover.
TEXT -544 -296 Left 2 !.step param Ipeak list 10u 25u 50u 100u 200u 400u 1m 2.5m 5m 10m 25m 50m 100m 250m 500m
