Version 4
SHEET 1 1144 680
WIRE -464 -1056 -688 -1056
WIRE -64 -1056 -384 -1056
WIRE -608 -976 -976 -976
WIRE -496 -976 -528 -976
WIRE -304 -976 -432 -976
WIRE -64 -976 -64 -1056
WIRE -64 -976 -304 -976
WIRE 0 -976 -64 -976
WIRE -496 -896 -496 -976
WIRE -432 -896 -432 -976
WIRE -304 -896 -304 -976
WIRE -240 -896 -240 -928
WIRE -688 -864 -688 -1056
WIRE -608 -864 -688 -864
WIRE -608 -800 -688 -800
WIRE -976 -784 -976 -976
WIRE -1024 -768 -1056 -768
WIRE 112 -736 48 -736
WIRE -1024 -720 -1040 -720
WIRE -688 -720 -688 -800
WIRE 48 -720 48 -736
WIRE -64 -704 -64 -976
WIRE -64 -704 -176 -704
WIRE 0 -704 0 -976
WIRE -976 -672 -976 -704
WIRE -976 -672 -1168 -672
WIRE -608 -672 -624 -672
WIRE -976 -640 -976 -672
WIRE -64 -640 -176 -640
WIRE -1056 -624 -1056 -768
WIRE -1056 -624 -1456 -624
WIRE -1024 -624 -1056 -624
WIRE -1456 -608 -1456 -624
WIRE -1168 -592 -1168 -672
WIRE -1040 -576 -1040 -720
WIRE -1024 -576 -1040 -576
WIRE -1040 -544 -1040 -576
WIRE -688 -544 -688 -640
WIRE -608 -544 -688 -544
WIRE -144 -544 -176 -544
WIRE -608 -480 -688 -480
WIRE -1392 -448 -1424 -448
WIRE -1424 -432 -1424 -448
WIRE -240 -416 -240 -448
WIRE -976 -384 -976 -560
WIRE -608 -384 -976 -384
WIRE -496 -384 -496 -448
WIRE -496 -384 -528 -384
WIRE -432 -368 -432 -448
WIRE -304 -368 -304 -448
WIRE -304 -368 -432 -368
WIRE -64 -368 -64 -640
WIRE -64 -368 -304 -368
WIRE 0 -368 0 -656
WIRE 0 -368 -64 -368
WIRE -688 -304 -688 -480
WIRE -432 -304 -688 -304
WIRE -64 -304 -64 -368
WIRE -64 -304 -352 -304
FLAG 112 -736 out_diff_1
FLAG 48 -640 0
FLAG -1456 -528 0
FLAG -1424 -352 0
FLAG -1392 -448 V+
FLAG -1040 -544 0
FLAG -1168 -512 0
FLAG -144 -480 0
FLAG -240 -416 0
FLAG -624 -672 V+
FLAG -240 -928 V+
SYMBOL voltage -1456 -624 M0
WINDOW 0 -46 28 Top 2
WINDOW 3 -142 112 Invisible 2
WINDOW 123 -73 58 Top 2
WINDOW 39 0 0 Left 2
SYMATTR InstName V1
SYMATTR Value PULSE(-1 1 0 1n 1n 50n 100n)
SYMATTR Value2 AC 1V
SYMBOL e 48 -736 R0
WINDOW 0 34 44 Left 2
WINDOW 3 37 68 Left 2
SYMATTR InstName E1
SYMATTR Value 1
SYMBOL voltage -1424 -448 R0
WINDOW 0 37 50 Left 2
WINDOW 3 37 77 Left 2
SYMATTR InstName V2
SYMATTR Value 5
SYMBOL res -368 -1072 R90
WINDOW 0 0 70 VBottom 2
WINDOW 3 34 49 VTop 2
SYMATTR InstName RF1
SYMATTR Value {RF}
SYMBOL res -336 -320 R90
WINDOW 0 -3 66 VBottom 2
WINDOW 3 33 47 VTop 2
SYMATTR InstName RF2
SYMATTR Value {RF}
SYMBOL res -512 -400 R90
WINDOW 0 3 56 VBottom 2
WINDOW 3 30 47 VTop 2
SYMATTR InstName Rin2
SYMATTR Value {RIN}
SYMBOL res -512 -992 R90
WINDOW 0 3 54 VBottom 2
WINDOW 3 33 47 VTop 2
SYMATTR InstName Rin1
SYMATTR Value {RIN}
SYMBOL res -672 -624 R180
WINDOW 0 41 66 Left 2
WINDOW 3 39 39 Left 2
SYMATTR InstName RQ1
SYMATTR Value {RQ}
SYMBOL e -976 -800 R0
WINDOW 0 36 43 Left 2
WINDOW 3 38 65 Left 2
SYMATTR InstName E2
SYMATTR Value 0.5
SYMBOL e -976 -656 R0
WINDOW 0 37 42 Left 2
WINDOW 3 36 68 Left 2
SYMATTR InstName E3
SYMATTR Value 0.5
SYMBOL voltage -1168 -608 R0
WINDOW 0 37 50 Left 2
WINDOW 3 38 75 Left 2
SYMATTR InstName V3
SYMATTR Value 2.5
SYMBOL FilterProducts\\LTC6601-1 -384 -672 R0
SYMATTR InstName U2
SYMBOL cap -160 -544 R0
WINDOW 0 40 18 Left 2
WINDOW 3 37 42 Left 2
SYMATTR InstName C1
SYMATTR Value 0.1µ
TEXT -1328 -352 Left 2 !.ac oct 500 1meg 100meg
TEXT -968 -904 Left 3 !.param RQ=226
TEXT -968 -952 Left 3 !.param  RF=11.5k
TEXT -968 -848 Left 3 !.param RIN=49.9
TEXT -1456 -1048 Left 3 ;LTC6601-1\nFully Differential \n7.5MHz Bandpass Filter\nGain at 7.5MHz=10dB
