Version 4
SHEET 1 2592 1424
WIRE 128 16 16 16
WIRE 240 16 208 16
WIRE 528 16 240 16
WIRE 640 16 608 16
WIRE 16 64 16 16
WIRE -384 80 -400 80
WIRE -368 80 -384 80
WIRE -256 80 -288 80
WIRE -224 80 -256 80
WIRE -64 80 -80 80
WIRE -32 80 -64 80
WIRE 368 96 336 96
WIRE 384 96 368 96
WIRE -400 112 -400 80
WIRE -288 112 -288 80
WIRE 1248 112 1152 112
WIRE 1296 112 1248 112
WIRE 336 128 336 96
WIRE -32 144 -32 128
WIRE 1152 160 1152 112
WIRE 240 176 240 16
WIRE 304 176 240 176
WIRE 640 176 640 16
WIRE 640 176 464 176
WIRE 752 176 640 176
WIRE 1104 176 752 176
WIRE -400 208 -400 192
WIRE -288 208 -288 192
WIRE 16 208 16 144
WIRE 64 208 16 208
WIRE 304 208 160 208
WIRE 752 208 752 176
WIRE 816 208 752 208
WIRE 944 208 896 208
WIRE 304 240 240 240
WIRE 640 240 464 240
WIRE 944 240 944 208
WIRE 944 240 640 240
WIRE 1104 240 1104 224
WIRE 1104 240 944 240
WIRE 16 256 16 208
WIRE -80 272 -80 80
WIRE -32 272 -80 272
WIRE 1152 272 1152 240
WIRE -368 304 -416 304
WIRE -336 304 -368 304
WIRE -416 336 -416 304
WIRE 336 336 336 288
WIRE 368 336 336 336
WIRE 384 336 368 336
WIRE -32 352 -32 320
WIRE 16 400 16 336
WIRE 128 400 16 400
WIRE 240 400 240 240
WIRE 240 400 208 400
WIRE 528 400 240 400
WIRE 640 400 640 240
WIRE 640 400 608 400
WIRE -416 432 -416 416
FLAG -400 208 0
FLAG -288 208 0
FLAG -384 80 V+
FLAG -256 80 V-
FLAG -416 432 0
FLAG -368 304 VIN
FLAG 368 96 V+
FLAG 368 336 V-
FLAG -32 144 0
FLAG -32 352 0
FLAG -64 80 VIN
FLAG 1152 272 0
FLAG 1248 112 VoutOL
FLAG 64 208 0
FLAG 160 208 0
SYMBOL voltage -400 96 R0
WINDOW 123 0 0 Left 2
WINDOW 39 0 0 Left 2
SYMATTR InstName V1
SYMATTR Value 2.5
SYMBOL voltage -288 96 R0
WINDOW 123 0 0 Left 2
WINDOW 39 0 0 Left 2
SYMATTR InstName V2
SYMATTR Value -2.5
SYMBOL voltage -416 320 R0
WINDOW 123 24 124 Left 2
WINDOW 39 0 0 Left 2
SYMATTR Value2 AC 1
SYMATTR InstName V4
SYMATTR Value 0
SYMBOL res 624 0 R90
WINDOW 0 0 56 VBottom 2
WINDOW 3 32 56 VTop 2
SYMATTR InstName R17
SYMATTR Value 1 AC=1T
SYMBOL res 224 0 R90
WINDOW 0 0 56 VBottom 2
WINDOW 3 32 56 VTop 2
SYMATTR InstName R18
SYMATTR Value 1
SYMBOL e2 16 352 M180
WINDOW 0 39 71 Left 2
WINDOW 3 42 40 Left 2
SYMATTR InstName E13
SYMATTR Value .5
SYMBOL e2 16 160 M180
WINDOW 0 39 76 Left 2
WINDOW 3 38 45 Left 2
SYMATTR InstName E14
SYMATTR Value .5
SYMBOL e 1152 144 R0
SYMATTR InstName E15
SYMATTR Value 1
SYMBOL res 624 384 R90
WINDOW 0 0 56 VBottom 2
WINDOW 3 32 56 VTop 2
SYMATTR InstName R1
SYMATTR Value 1 AC=1T
SYMBOL res 224 384 R90
WINDOW 0 0 56 VBottom 2
WINDOW 3 32 56 VTop 2
SYMATTR InstName R2
SYMATTR Value 1
SYMBOL res 912 192 R90
WINDOW 0 0 56 VBottom 2
WINDOW 3 32 56 VTop 2
SYMATTR InstName R3
SYMATTR Value {RL}
SYMBOL Opamps\\LTC6362 368 208 R0
SYMATTR InstName U1
TEXT 872 536 Left 2 !.ac oct 20 .01 1g
TEXT 1016 440 Left 2 !.step param RL list 1k 10k
