Version 4
SHEET 1 1100 680
WIRE 816 16 432 16
WIRE 0 80 -624 80
WIRE 48 80 0 80
WIRE 352 80 272 80
WIRE 544 80 352 80
WIRE 816 80 816 16
WIRE 816 80 768 80
WIRE 832 80 816 80
WIRE -624 112 -624 80
WIRE 48 160 32 160
WIRE 288 160 272 160
WIRE 544 160 528 160
WIRE 880 160 768 160
WIRE 960 160 880 160
WIRE -64 240 -80 240
WIRE 48 240 16 240
WIRE 304 240 272 240
WIRE 432 240 432 16
WIRE 448 240 432 240
WIRE 544 240 528 240
WIRE 816 240 768 240
WIRE 880 240 816 240
WIRE 304 304 304 240
WIRE 816 304 816 240
WIRE 816 304 304 304
FLAG -352 256 3v3
FLAG -352 336 0
FLAG 32 160 0
FLAG 528 160 0
FLAG 960 160 3v3
FLAG 288 160 3v3
FLAG 880 320 0
FLAG 0 80 ping
FLAG -80 240 0
FLAG 832 80 wdog_timeout
FLAG 352 80 ping_pulse
FLAG -624 192 0
SYMBOL SpecialFunctions\\LTC6993-1 160 160 R0
SYMATTR InstName U2
SYMBOL SpecialFunctions\\LTC6995-1 656 160 R0
SYMATTR InstName U1
SYMBOL voltage -352 240 R0
WINDOW 123 0 0 Left 2
WINDOW 39 0 0 Left 2
WINDOW 0 49 37 Left 2
WINDOW 3 46 65 Left 2
SYMATTR InstName V1
SYMATTR Value 3.3
SYMBOL res 864 144 R0
WINDOW 0 38 41 Left 2
SYMATTR InstName R2
SYMATTR Value 976k
SYMBOL res 864 224 R0
WINDOW 3 38 68 Left 2
SYMATTR InstName R3
SYMATTR Value 102k
SYMBOL res 544 224 R90
WINDOW 0 0 56 VBottom 2
WINDOW 3 33 43 VTop 2
SYMATTR InstName R5
SYMATTR Value 604k
SYMBOL res 32 224 R90
WINDOW 0 -1 67 VBottom 2
WINDOW 3 31 42 VTop 2
SYMATTR InstName R6
SYMATTR Value 619k
SYMBOL voltage -624 96 R0
WINDOW 3 39 75 Left 2
WINDOW 123 0 0 Left 2
WINDOW 39 0 0 Left 2
WINDOW 0 40 31 Left 2
SYMATTR Value PULSE(0 3.3 {td} .001u .001u 1m 2m 1)
SYMATTR InstName V2
TEXT -616 280 Left 2 !.tran 100m startup
TEXT -632 0 Left 3 !.step param td LIST 1m  5m  10m
