Version 4
SHEET 1 1860 680
WIRE 992 -96 976 -96
WIRE 1120 -96 1072 -96
WIRE 1136 -96 1120 -96
WIRE 976 -80 976 -96
WIRE 880 112 688 112
WIRE 1040 112 960 112
WIRE 1184 112 1040 112
WIRE 1344 112 1264 112
WIRE 1360 112 1344 112
WIRE 1136 160 1136 -96
WIRE 1040 208 1040 112
WIRE 1104 208 1040 208
WIRE 1360 240 1360 112
WIRE 1360 240 1248 240
WIRE 832 272 800 272
WIRE 1104 272 912 272
WIRE 800 288 800 272
WIRE 1008 384 976 384
WIRE 1136 384 1136 320
WIRE 1136 384 1088 384
WIRE 976 400 976 384
WIRE 1184 416 1184 320
FLAG 976 400 0
FLAG 976 -80 0
FLAG 1344 112 Out
FLAG 800 288 0
FLAG 688 112 0
FLAG 1120 -96 V+
FLAG 1184 416 V+
SYMBOL res 1280 96 R90
WINDOW 0 0 56 VBottom 2
WINDOW 3 32 56 VTop 2
SYMATTR InstName R1
SYMATTR Value 1 AC=1T
SYMBOL res 976 96 R90
WINDOW 0 0 56 VBottom 2
WINDOW 3 32 56 VTop 2
SYMATTR InstName R2
SYMATTR Value 1G AC=1
SYMBOL voltage 1088 -96 R90
WINDOW 0 -32 56 VBottom 2
WINDOW 3 32 56 VTop 2
WINDOW 123 0 0 Left 2
WINDOW 39 0 0 Left 2
SYMATTR InstName V3
SYMATTR Value 5
SYMBOL voltage 992 384 R270
WINDOW 0 60 58 VBottom 2
WINDOW 3 -57 56 VTop 2
WINDOW 123 0 0 Left 2
WINDOW 39 0 0 Left 2
SYMATTR InstName V4
SYMATTR Value 5
SYMBOL voltage 816 272 R270
WINDOW 0 60 58 VBottom 2
WINDOW 3 -57 56 VTop 2
WINDOW 123 -85 56 VTop 2
WINDOW 39 0 0 Left 2
SYMATTR InstName V1
SYMATTR Value 0
SYMATTR Value2 AC 1
SYMBOL Opamps\\LT6200 1136 240 R0
SYMATTR InstName U1
TEXT 1344 400 Left 2 !.ac oct 8 1 1G
