Version 4
SHEET 1 1928 1456
WIRE -5392 -3296 -5440 -3296
WIRE -4704 -3296 -5312 -3296
WIRE -5440 -3232 -5440 -3296
WIRE -5040 -3184 -5040 -3200
WIRE -5040 -3136 -5040 -3184
WIRE -5072 -3088 -5280 -3088
WIRE -5280 -3072 -5280 -3088
WIRE -4704 -3056 -4704 -3296
WIRE -4704 -3056 -4928 -3056
WIRE -4640 -3056 -4704 -3056
WIRE -4608 -3056 -4640 -3056
WIRE -5120 -3024 -5280 -3024
WIRE -5072 -3024 -5120 -3024
WIRE -5280 -3008 -5280 -3024
WIRE -5616 -2944 -5680 -2944
WIRE -5440 -2944 -5504 -2944
WIRE -5680 -2928 -5680 -2944
WIRE -5504 -2928 -5504 -2944
WIRE -5040 -2912 -5040 -2976
WIRE -4992 -2880 -4992 -2976
WIRE -4944 -2880 -4992 -2880
WIRE -5280 -2864 -5280 -2928
WIRE -5680 -2832 -5680 -2848
WIRE -5504 -2832 -5504 -2848
FLAG -5616 -2944 V+
FLAG -5680 -2832 0
FLAG -5440 -2944 V-
FLAG -5504 -2832 0
FLAG -5040 -3184 V+
FLAG -5040 -2912 V-
FLAG -4944 -2880 V+
FLAG -4640 -3056 Vo
FLAG -5440 -3232 0
FLAG -5280 -2864 0
FLAG -5184 -2928 0
FLAG -5120 -3024 Vp
FLAG -5280 -3072 0
SYMBOL voltage -5680 -2944 R0
WINDOW 0 36 45 Left 2
WINDOW 3 44 71 Left 2
WINDOW 123 0 0 Left 2
WINDOW 39 0 0 Left 2
SYMATTR InstName V3
SYMATTR Value 2.5
SYMBOL voltage -5504 -2944 R0
WINDOW 0 36 45 Left 2
WINDOW 3 44 71 Left 2
WINDOW 123 0 0 Left 2
WINDOW 39 0 0 Left 2
SYMATTR InstName V2
SYMATTR Value -2.5
SYMBOL Opamps\\LT6200 -5040 -3056 R0
SYMATTR InstName U1
SYMBOL voltage -5280 -3024 R0
WINDOW 123 24 44 Left 2
WINDOW 39 0 0 Left 2
WINDOW 3 -487 96 Left 2
SYMATTR Value2 AC 1u
SYMATTR Value PULSE(0 .001 250m 1n 1n 250m 500m)
SYMATTR InstName V4
TEXT -5808 -3064 Left 2 !.ac oct 250 10 1000Meg
TEXT -5808 -3144 Left 2 !;tran 1
