Version 4
SHEET 1 1812 964
WIRE 176 48 176 0
WIRE 304 48 304 0
WIRE 176 160 176 128
WIRE 304 160 304 128
WIRE 48 288 -32 288
WIRE 224 288 128 288
WIRE 160 352 80 352
WIRE 80 384 80 352
WIRE -32 400 -32 288
WIRE 48 400 -32 400
WIRE 224 416 224 288
WIRE 224 416 112 416
WIRE 576 416 224 416
WIRE 672 416 656 416
WIRE 736 416 672 416
WIRE 880 416 816 416
WIRE 1040 416 880 416
WIRE 48 432 -336 432
WIRE 80 496 80 448
WIRE 160 496 80 496
WIRE 1312 496 1232 496
WIRE 1232 544 1232 496
WIRE 672 560 672 416
WIRE 688 560 672 560
WIRE 880 560 880 416
WIRE 880 560 848 560
WIRE 1184 560 1056 560
WIRE -32 592 -32 400
WIRE 592 592 560 592
WIRE 688 592 656 592
WIRE -336 608 -336 432
WIRE 1184 608 1056 608
WIRE 688 624 672 624
WIRE 880 624 848 624
WIRE 160 656 80 656
WIRE 80 688 80 656
WIRE 720 688 720 672
WIRE 1232 688 1232 624
WIRE -336 704 -336 688
WIRE -336 704 -512 704
WIRE -32 704 -32 672
WIRE 48 704 -32 704
WIRE -336 720 -336 704
WIRE 224 720 112 720
WIRE 48 736 -144 736
WIRE -512 752 -512 704
WIRE 224 752 224 720
WIRE 576 752 224 752
WIRE 672 752 672 624
WIRE 672 752 656 752
WIRE 736 752 672 752
WIRE 880 752 880 624
WIRE 880 752 816 752
WIRE 1024 752 880 752
WIRE 80 800 80 752
WIRE 160 800 80 800
WIRE -512 864 -512 832
WIRE -336 864 -336 800
WIRE -144 864 -144 736
WIRE -144 864 -336 864
WIRE -32 864 -32 704
WIRE 48 864 -32 864
WIRE 224 864 224 752
WIRE 224 864 128 864
FLAG 176 160 0
FLAG 304 160 0
FLAG 176 0 V+
FLAG 304 0 V-
FLAG -512 864 0
FLAG 160 352 V+
FLAG 160 496 V-
FLAG 160 656 V+
FLAG 160 800 V-
FLAG 560 592 0
FLAG 720 512 V+
FLAG 720 688 V-
FLAG 1040 416 VOUTP
FLAG 1024 752 VOUTN
FLAG 1056 560 VOUTP
FLAG 1056 608 VOUTN
FLAG 1232 688 0
FLAG 1312 496 VOUTDIFF
SYMBOL voltage 176 32 R0
WINDOW 123 0 0 Left 2
WINDOW 39 0 0 Left 2
SYMATTR InstName V1
SYMATTR Value 5
SYMBOL voltage 304 32 R0
WINDOW 123 0 0 Left 2
WINDOW 39 0 0 Left 2
SYMATTR InstName V2
SYMATTR Value 0
SYMBOL Opamps\\LTC6079 80 416 R0
SYMATTR InstName U1
SYMBOL voltage -512 736 R0
WINDOW 123 0 0 Left 2
WINDOW 39 0 0 Left 2
SYMATTR InstName Vcm
SYMATTR Value 2.5
SYMBOL res -48 576 R0
SYMATTR InstName R1
SYMATTR Value 2K
SYMBOL res 144 272 R90
WINDOW 0 0 56 VBottom 2
WINDOW 3 32 56 VTop 2
SYMATTR InstName R2
SYMATTR Value 9K
SYMBOL res 144 848 R90
WINDOW 0 0 56 VBottom 2
WINDOW 3 32 56 VTop 2
SYMATTR InstName R3
SYMATTR Value 9K
SYMBOL Opamps\\LTC6079 80 720 R0
SYMATTR InstName U2
SYMBOL voltage -336 704 R0
WINDOW 123 0 0 Left 2
WINDOW 39 0 0 Left 2
SYMATTR InstName Vdiff1
SYMATTR Value SINE(0 125m 1K)
SYMBOL res 832 400 R90
WINDOW 0 0 56 VBottom 2
WINDOW 3 32 56 VTop 2
SYMATTR InstName R6
SYMATTR Value 1K
SYMBOL res 672 400 R90
WINDOW 0 0 56 VBottom 2
WINDOW 3 32 56 VTop 2
SYMATTR InstName R7
SYMATTR Value 1K
SYMBOL res 832 736 R90
WINDOW 0 0 56 VBottom 2
WINDOW 3 32 56 VTop 2
SYMATTR InstName R8
SYMATTR Value 1K
SYMBOL res 672 736 R90
WINDOW 0 0 56 VBottom 2
WINDOW 3 32 56 VTop 2
SYMATTR InstName R9
SYMATTR Value 1K
SYMBOL cap 656 576 R90
WINDOW 0 0 32 VBottom 2
WINDOW 3 32 32 VTop 2
SYMATTR InstName C1
SYMATTR Value .1µ
SYMBOL LTC6363 752 592 R0
SYMATTR InstName U3
SYMBOL e 1232 528 R0
SYMATTR InstName E1
SYMATTR Value 1
SYMBOL voltage -336 592 R0
WINDOW 123 0 0 Left 2
WINDOW 39 0 0 Left 2
SYMATTR InstName Vdiff2
SYMATTR Value SINE(0 125m 1K)
TEXT -200 152 Left 2 !.tran 10m
