Version 4
SHEET 1 2632 680
WIRE 800 -800 656 -800
WIRE 1504 -800 800 -800
WIRE 1584 -800 1504 -800
WIRE 656 -784 656 -800
WIRE 800 -784 800 -800
WIRE 1504 -784 1504 -800
WIRE 656 -688 656 -704
WIRE 800 -688 800 -704
WIRE 1008 -688 800 -688
WIRE 1504 -688 1504 -704
WIRE 1504 -688 1456 -688
WIRE 1504 -640 1504 -688
WIRE 1504 -640 1200 -640
WIRE 800 -608 800 -688
WIRE 1584 -592 1584 -800
WIRE 1584 -592 1264 -592
WIRE 1344 -528 1168 -528
WIRE 800 -496 800 -528
WIRE 1200 -496 1200 -640
WIRE 1344 -496 1200 -496
WIRE 1456 -496 1456 -688
WIRE 1456 -496 1408 -496
WIRE 1264 -464 1264 -592
WIRE 1344 -464 1264 -464
WIRE 1472 -464 1408 -464
WIRE 1008 -432 1008 -688
WIRE 1344 -432 1008 -432
WIRE 1664 -432 1408 -432
WIRE 1664 -384 1664 -432
WIRE 1696 -384 1664 -384
WIRE 1168 -352 1168 -528
WIRE 1664 -352 1664 -384
WIRE 1168 -208 1168 -272
WIRE 1472 -208 1472 -464
WIRE 1664 -208 1664 -272
FLAG 800 -496 0
FLAG 656 -688 0
FLAG 656 -800 IN
FLAG 1696 -384 OUT
FLAG 1472 -208 0
FLAG 1168 -208 0
FLAG 1664 -208 0
SYMBOL res 1648 -368 R0
SYMATTR InstName R1
SYMATTR Value 4.99K
SYMBOL voltage 656 -800 R0
WINDOW 123 24 138 Left 2
WINDOW 39 24 117 Left 2
SYMATTR Value 60
SYMATTR InstName V1
SYMBOL load2 800 -608 R0
WINDOW 123 25 112 Left 2
WINDOW 39 25 140 Left 2
SYMATTR Value2 (.1m 0 .2m 10 .3m 10 .4m 0)
SYMATTR SpiceLine ENDREPEAT
SYMATTR Value PWL REPEAT FOR 7
SYMATTR InstName Iload
SYMBOL res 784 -800 R0
SYMATTR InstName R3
SYMATTR Value 2m
SYMBOL res 1488 -800 R0
SYMATTR InstName R5
SYMATTR Value 100
SYMBOL voltage 1168 -368 R0
WINDOW 123 0 0 Left 2
WINDOW 39 0 0 Left 2
SYMATTR InstName VSHDN1
SYMATTR Value PULSE(0 5 500u 1n 1n 150u 300u)
SYMBOL CustomBlock 1376 -480 R0
SYMATTR InstName U2
TEXT 1856 -928 Left 2 !.tran 0 3m 0
TEXT 1840 -832 Left 2 !.inc CustomBlock.net
TEXT 856 -176 Left 2 ;README\n \n.inc statement includes a file.  \nThe custom block could be a .net or .cir or other file.\nThe actual name of the block is the Value in the part, and needs \nto match the name of the subcircuit in the text file.
