Version 4
SHEET 1 1700 820
WIRE 656 -320 640 -320
WIRE 736 -320 720 -320
WIRE 880 -320 736 -320
WIRE 960 -320 960 -368
WIRE 960 -320 880 -320
WIRE 640 -304 640 -320
WIRE 640 -304 576 -304
WIRE 736 -304 736 -320
WIRE 880 -304 880 -320
WIRE 576 -288 576 -304
WIRE 1152 -240 1104 -240
WIRE 1152 -208 1152 -240
WIRE 576 -192 576 -208
WIRE 736 -192 736 -224
WIRE 736 -192 576 -192
WIRE 880 -192 880 -240
WIRE 880 -192 736 -192
WIRE 960 -192 880 -192
WIRE 1104 -192 1104 -240
WIRE 1104 -192 960 -192
WIRE 272 -128 80 -128
WIRE 432 -128 272 -128
WIRE 656 -128 640 -128
WIRE 736 -128 720 -128
WIRE 880 -128 736 -128
WIRE 960 -128 880 -128
WIRE 1104 -128 960 -128
WIRE 272 -112 272 -128
WIRE 432 -112 432 -128
WIRE 528 -112 432 -112
WIRE 640 -112 640 -128
WIRE 640 -112 576 -112
WIRE 736 -112 736 -128
WIRE 880 -112 880 -128
WIRE 80 -96 80 -128
WIRE 528 -96 528 -112
WIRE 576 -96 576 -112
WIRE 1104 -80 1104 -128
WIRE 1152 -80 1152 -128
WIRE 1152 -80 1104 -80
WIRE 272 -16 272 -32
WIRE 528 0 528 -16
WIRE 528 0 432 0
WIRE 576 0 576 -16
WIRE 736 0 736 -32
WIRE 736 0 576 0
WIRE 880 0 880 -48
WIRE 880 0 736 0
WIRE -144 16 -192 16
WIRE 80 16 80 -16
WIRE 80 16 -80 16
WIRE 208 16 80 16
WIRE 432 16 432 0
WIRE 880 16 880 0
WIRE 80 48 80 16
WIRE 208 48 208 16
WIRE -144 96 -192 96
WIRE -32 96 -80 96
WIRE 384 96 320 96
WIRE 576 112 432 112
WIRE -32 176 -48 176
WIRE 400 176 320 176
WIRE 432 176 400 176
WIRE 576 176 576 112
WIRE 576 176 512 176
WIRE 400 192 400 176
WIRE -176 256 -192 256
WIRE -32 256 -112 256
WIRE 400 256 320 256
WIRE 576 256 400 256
WIRE 576 288 576 256
WIRE -128 336 -192 336
WIRE -32 336 -48 336
WIRE 384 352 352 352
WIRE 496 352 464 352
WIRE 592 352 560 352
WIRE -176 416 -192 416
WIRE -32 416 -96 416
WIRE 352 416 352 352
WIRE 352 416 320 416
WIRE 448 416 352 416
WIRE 592 416 592 352
WIRE 592 416 512 416
WIRE 624 416 592 416
WIRE -128 496 -192 496
WIRE -32 496 -48 496
WIRE 480 496 320 496
WIRE 544 496 480 496
WIRE 672 496 624 496
WIRE 480 512 480 496
WIRE 672 512 672 496
WIRE 352 576 320 576
WIRE 480 608 480 592
WIRE 672 608 672 592
WIRE 144 640 144 624
FLAG 576 288 0
FLAG 624 416 0
FLAG 880 16 0
FLAG 672 608 0
FLAG 480 608 0
FLAG 144 640 0
FLAG 272 -16 0
FLAG 352 576 0
FLAG -192 256 0
FLAG -48 176 0
FLAG -192 416 0
FLAG -192 496 0
FLAG -192 336 0
FLAG -192 96 0
FLAG 960 -368 0
FLAG 960 -192 OUT-
FLAG 960 -128 OUT+
FLAG -192 16 0
SYMBOL ind2 512 0 M180
WINDOW 0 -6 71 Right 2
WINDOW 3 -2 41 Right 2
SYMATTR InstName L1
SYMATTR Value 120µ
SYMATTR Type ind
SYMATTR SpiceLine Rser=.2
SYMBOL ind2 592 -112 M0
WINDOW 0 -2 43 Right 2
WINDOW 3 0 72 Right 2
SYMATTR InstName L2
SYMATTR Value 12m
SYMATTR Type ind
SYMATTR SpiceLine Rser=12m
SYMBOL ind2 656 496 R0
SYMATTR InstName L3
SYMATTR Value 5.32µ
SYMATTR Type ind
SYMATTR SpiceLine Rser=.215
SYMBOL nmos 384 16 R0
WINDOW 0 60 9 Left 2
WINDOW 3 61 71 Left 2
SYMATTR InstName Q1
SYMATTR Value BSC22DN20NS3
SYMBOL res 560 160 R0
SYMATTR InstName R1
SYMATTR Value .05
SYMBOL cap 512 400 R90
WINDOW 0 0 32 VBottom 2
WINDOW 3 32 32 VTop 2
SYMATTR InstName C1
SYMATTR Value 220p
SYMBOL diode 656 -304 R270
WINDOW 0 32 32 VTop 2
WINDOW 3 61 117 VBottom 2
SYMATTR InstName D2
SYMATTR Value RFN5TF8S
SYMBOL cap 864 -112 R0
SYMATTR InstName C8
SYMATTR Value 0.1µ
SYMATTR SpiceLine V=600 Irms=1 Rser=0.007 Lser=1n
SYMBOL res 464 496 R0
SYMATTR InstName R7
SYMATTR Value 3.01K
SYMBOL res 640 480 R90
WINDOW 0 0 56 VBottom 2
WINDOW 3 32 56 VTop 2
SYMATTR InstName R8
SYMATTR Value 15.8K
SYMBOL voltage 272 -128 R0
SYMATTR InstName V1
SYMATTR Value 24
SYMBOL cap -112 240 R90
WINDOW 0 0 32 VBottom 2
WINDOW 3 32 32 VTop 2
SYMATTR InstName C10
SYMATTR Value 100p
SYMBOL res -80 400 R90
WINDOW 0 0 56 VBottom 2
WINDOW 3 32 56 VTop 2
SYMATTR InstName R10
SYMATTR Value 121K
SYMBOL res -32 480 R90
WINDOW 0 0 56 VBottom 2
WINDOW 3 32 56 VTop 2
SYMATTR InstName R11
SYMATTR Value 169K
SYMBOL res -32 320 R90
WINDOW 0 0 56 VBottom 2
WINDOW 3 32 56 VTop 2
SYMATTR InstName R12
SYMATTR Value 27K
SYMBOL LT3825 144 336 R0
SYMATTR InstName U1
SYMBOL cap 560 336 R90
WINDOW 0 0 32 VBottom 2
WINDOW 3 -19 -15 VTop 2
SYMATTR InstName C2
SYMATTR Value 1.5n
SYMBOL res 480 336 R90
WINDOW 0 0 56 VBottom 2
WINDOW 3 32 56 VTop 2
SYMATTR InstName R2
SYMATTR Value 33K
SYMBOL cap -80 80 R90
WINDOW 0 0 32 VBottom 2
WINDOW 3 32 32 VTop 2
SYMATTR InstName C3
SYMATTR Value 0.1µ
SYMBOL res 528 160 R90
WINDOW 0 -4 93 VBottom 2
WINDOW 3 -31 35 VTop 2
SYMATTR InstName R3
SYMATTR Value 100
SYMBOL cap 416 256 R180
WINDOW 0 -34 46 Left 2
WINDOW 3 -43 22 Left 2
SYMATTR InstName C4
SYMATTR Value 1n
SYMBOL res 720 -128 R0
SYMATTR InstName Rdummy1
SYMATTR Value 375K
SYMBOL ind2 592 -304 M0
WINDOW 0 -2 43 Right 2
WINDOW 3 0 72 Right 2
SYMATTR InstName L4
SYMATTR Value 12m
SYMATTR Type ind
SYMATTR SpiceLine Rser=12m
SYMBOL diode 656 -112 R270
WINDOW 0 32 32 VTop 2
WINDOW 3 62 119 VBottom 2
SYMATTR InstName D1
SYMATTR Value RFN5TF8S
SYMBOL cap 864 -304 R0
SYMATTR InstName C5
SYMATTR Value 0.1µ
SYMATTR SpiceLine V=600 Irms=1 Rser=0.007 Lser=1n
SYMBOL res 720 -320 R0
SYMATTR InstName Rdummy2
SYMATTR Value 375K
SYMBOL res 1136 -224 R0
SYMATTR InstName Rload
SYMATTR Value 75K
SYMBOL cap -80 0 R90
WINDOW 0 0 32 VBottom 2
WINDOW 3 -27 -15 VTop 2
SYMATTR InstName C6
SYMATTR Value 10µ
SYMBOL res 96 0 R180
WINDOW 0 36 76 Left 2
WINDOW 3 36 40 Left 2
SYMATTR InstName R4
SYMATTR Value 200
TEXT 536 -120 Bottom 2 !K1 L1 L2 L3 L4 1
TEXT 808 544 Left 2 !.tran 12m startup
TEXT 1096 -272 Left 3 ;750Vout 10mA
TEXT 208 -152 Left 3 ;23-25Vin
