Version 4
SHEET 1 2140 716
WIRE 608 -640 528 -640
WIRE 800 -640 672 -640
WIRE 528 -528 528 -640
WIRE 608 -528 528 -528
WIRE 800 -528 800 -640
WIRE 800 -528 688 -528
WIRE 1344 -528 800 -528
WIRE 1136 -416 1088 -416
WIRE 1296 -416 1216 -416
WIRE 416 -368 336 -368
WIRE 528 -368 528 -528
WIRE 528 -368 496 -368
WIRE 672 -368 528 -368
WIRE 800 -368 736 -368
WIRE 912 -288 864 -288
WIRE 960 -288 912 -288
WIRE 1088 -288 1088 -416
WIRE 1088 -288 1040 -288
WIRE 624 -256 624 -304
WIRE 1152 -256 1152 -336
WIRE 1088 -240 1088 -288
WIRE 1136 -240 1088 -240
WIRE 1296 -224 1296 -416
WIRE 1296 -224 1200 -224
WIRE 1344 -224 1344 -528
WIRE 1344 -224 1296 -224
WIRE 1424 -224 1344 -224
WIRE 1456 -224 1424 -224
WIRE 528 -208 528 -368
WIRE 592 -208 528 -208
WIRE 1136 -208 1088 -208
WIRE 256 -192 -96 -192
WIRE 800 -176 800 -368
WIRE 800 -176 736 -176
WIRE 928 -176 800 -176
WIRE 960 -176 928 -176
WIRE 1088 -176 1088 -208
WIRE 1088 -176 1040 -176
WIRE 256 -144 256 -192
WIRE 384 -144 256 -144
WIRE 528 -144 464 -144
WIRE 592 -144 528 -144
WIRE 1184 -144 1184 -192
WIRE 1264 -144 1184 -144
WIRE 1280 -144 1264 -144
WIRE 112 -128 16 -128
WIRE 256 -112 256 -144
WIRE -96 -96 -96 -192
WIRE 16 -96 16 -128
WIRE 112 -96 112 -128
WIRE 528 -80 528 -144
WIRE 1152 -80 1152 -192
WIRE 672 -64 672 -96
WIRE 720 -64 672 -64
WIRE 752 -64 720 -64
WIRE 624 -48 624 -96
WIRE 1264 -32 1216 -32
WIRE 1328 -32 1264 -32
WIRE 1472 -32 1408 -32
WIRE 1584 -32 1472 -32
WIRE 1264 64 1264 -32
WIRE 1328 64 1264 64
WIRE 1472 64 1472 -32
WIRE 1472 64 1392 64
WIRE -96 80 -96 -16
WIRE 16 80 16 -16
WIRE 112 80 112 -16
WIRE 256 80 256 -32
WIRE 528 96 528 0
WIRE 1376 192 1376 144
WIRE 1216 240 1216 -32
WIRE 1344 240 1216 240
WIRE 1056 272 1024 272
WIRE 1216 272 1216 240
WIRE 1216 272 1136 272
WIRE 1584 272 1584 -32
WIRE 1584 272 1488 272
WIRE 1632 272 1584 272
WIRE 1664 272 1632 272
WIRE 1344 304 1296 304
WIRE 1424 384 1424 352
WIRE 1472 384 1424 384
WIRE 1504 384 1472 384
WIRE -80 400 -160 400
WIRE -48 400 -80 400
WIRE 256 400 176 400
WIRE 288 400 256 400
WIRE 1120 400 1072 400
WIRE 1168 400 1120 400
WIRE 1296 400 1296 304
WIRE 1296 400 1248 400
WIRE 1376 400 1376 352
WIRE -160 416 -160 400
WIRE 1296 480 1296 400
WIRE 64 496 64 464
WIRE 1296 608 1296 544
FLAG 64 496 0
FLAG 624 -48 0
FLAG -160 496 0
FLAG -80 400 V+
FLAG 720 -64 V+
FLAG 624 -304 V+
FLAG 256 400 V2p5
FLAG 256 80 0
FLAG 112 80 0
FLAG 928 -176 VMID
FLAG 288 464 0
FLAG -96 80 0
FLAG 16 80 0
FLAG 1152 -80 0
FLAG 1152 -336 V+
FLAG 912 -288 V2p5
FLAG 1424 -224 OUTP
FLAG 528 96 V2p5
FLAG 336 -368 0
FLAG 1264 -144 V+
FLAG 1024 272 OUTP
FLAG 1376 400 0
FLAG 1472 384 V+
FLAG 1376 144 V+
FLAG 1120 400 V2p5
FLAG 1296 608 0
FLAG 1632 272 OUTN
SYMBOL voltage -160 400 R0
WINDOW 123 0 0 Left 2
WINDOW 39 0 0 Left 2
SYMATTR InstName V1
SYMATTR Value 5
SYMBOL References\\LT6654-2.5 64 400 R0
SYMATTR InstName U2
SYMBOL res 240 -128 R0
SYMATTR InstName R3
SYMATTR Value .003
SYMBOL res 480 -160 R90
WINDOW 0 0 56 VBottom 2
WINDOW 3 32 56 VTop 2
SYMATTR InstName R4
SYMATTR Value 100
SYMBOL res 704 -544 R90
WINDOW 0 0 56 VBottom 2
WINDOW 3 32 56 VTop 2
SYMATTR InstName R5
SYMATTR Value 6.25K
SYMBOL current 112 -16 R180
WINDOW 0 24 80 Left 2
WINDOW 3 24 0 Left 2
WINDOW 123 0 0 Left 2
WINDOW 39 0 0 Left 2
SYMATTR InstName I1
SYMATTR Value PWL(0 -500m 1m -500m 9m 500m)
SYMBOL cap 272 400 R0
SYMATTR InstName C2
SYMATTR Value 1µ
SYMBOL current -96 -16 R180
WINDOW 0 24 80 Left 2
WINDOW 3 24 0 Left 2
WINDOW 123 0 0 Left 2
WINDOW 39 0 0 Left 2
SYMATTR InstName I2
SYMATTR Value PULSE(-400m .4 100u 10n 10n 100u 200u)
SYMBOL res 32 0 R180
WINDOW 0 36 76 Left 2
WINDOW 3 36 40 Left 2
SYMATTR InstName R6
SYMATTR Value 10K
SYMBOL res 1056 -192 R90
WINDOW 0 0 56 VBottom 2
WINDOW 3 32 56 VTop 2
SYMATTR InstName R7
SYMATTR Value 100
SYMBOL res 1056 -304 R90
WINDOW 0 0 56 VBottom 2
WINDOW 3 32 56 VTop 2
SYMATTR InstName R9
SYMATTR Value 100
SYMBOL Opamps\\LTC2051 624 -176 R0
SYMATTR InstName U1
SYMBOL cap 736 -384 R90
WINDOW 0 0 32 VBottom 2
WINDOW 3 32 32 VTop 2
SYMATTR InstName C4
SYMATTR Value 1p
SYMBOL res 1232 -432 R90
WINDOW 0 0 56 VBottom 2
WINDOW 3 32 56 VTop 2
SYMATTR InstName R8
SYMATTR Value 2K
SYMBOL res 512 -384 R90
WINDOW 0 0 56 VBottom 2
WINDOW 3 32 56 VTop 2
SYMATTR InstName R1
SYMATTR Value 100
SYMBOL res 544 16 R180
WINDOW 0 36 76 Left 2
WINDOW 3 36 40 Left 2
SYMATTR InstName R2
SYMATTR Value 6.25K
SYMBOL cap 672 -656 R90
WINDOW 0 0 32 VBottom 2
WINDOW 3 32 32 VTop 2
SYMATTR InstName C1
SYMATTR Value 150p
SYMBOL Opamps\\LTC6252 1168 -224 R0
SYMATTR InstName U4
SYMBOL res 1152 256 R90
WINDOW 0 0 56 VBottom 2
WINDOW 3 32 56 VTop 2
SYMATTR InstName R10
SYMATTR Value 6.25K
SYMBOL res 1424 -48 R90
WINDOW 0 0 56 VBottom 2
WINDOW 3 32 56 VTop 2
SYMATTR InstName R11
SYMATTR Value 6.25K
SYMBOL res 1264 384 R90
WINDOW 0 0 56 VBottom 2
WINDOW 3 32 56 VTop 2
SYMATTR InstName R12
SYMATTR Value 3.125K
SYMBOL cap 1280 480 R0
SYMATTR InstName C3
SYMATTR Value 1µ
SYMBOL Opamps\\LTC2051 1376 272 R0
SYMATTR InstName U3
SYMBOL cap 1392 48 R90
WINDOW 0 0 32 VBottom 2
WINDOW 3 35 29 VTop 2
SYMATTR InstName C5
SYMATTR Value 10p
TEXT 296 -288 Left 2 !.tran 1m
TEXT 368 352 Left 2 ;Total voltage gain is 125 V/V.   400 mA * 3mOhm = 1.2mV.\nUse composite amp.\nSecond stage is a high BW, high slew part.  Put in gain of 20.\nThe precision first stage controls the circuit.\nThe current draw from the 2.5V reference is not very large.\nThe 2050 allows common mode down to the bottom rail.
TEXT -120 -272 Left 2 ;Use I2 or I1.\nShunt the other one to R6.
TEXT 1520 -128 Left 2 ;Differential output centered at the reference.
