Version 4
SHEET 1 2192 936
WIRE 32 48 -16 48
WIRE 160 48 112 48
WIRE 928 64 832 64
WIRE 1152 64 1008 64
WIRE -16 80 -16 48
WIRE 112 80 112 48
WIRE 1680 112 1600 112
WIRE 1888 112 1760 112
WIRE 1024 128 944 128
WIRE 944 160 944 128
WIRE -16 208 -16 160
WIRE 112 208 112 160
WIRE 832 208 832 64
WIRE 832 208 784 208
WIRE 912 208 832 208
WIRE 1152 240 1152 64
WIRE 1152 240 1056 240
WIRE 1376 240 1152 240
WIRE 560 272 384 272
WIRE 912 272 640 272
WIRE 1760 272 1680 272
WIRE 1680 304 1680 272
WIRE 992 336 992 320
WIRE 1024 336 992 336
WIRE 784 352 784 208
WIRE 1376 352 1376 240
WIRE 1488 352 1376 352
WIRE 1600 352 1600 112
WIRE 1600 352 1568 352
WIRE 1648 352 1600 352
WIRE -288 368 -528 368
WIRE 80 368 -288 368
WIRE 1888 384 1888 112
WIRE 1888 384 1792 384
WIRE 2032 384 1888 384
WIRE 944 400 944 320
WIRE 1024 400 944 400
WIRE 1408 416 1376 416
WIRE 1600 416 1488 416
WIRE 1648 416 1600 416
WIRE -528 432 -528 368
WIRE -288 432 -288 368
WIRE 944 464 832 464
WIRE 1152 464 1024 464
WIRE 1728 480 1728 464
WIRE 1760 480 1728 480
WIRE 1024 512 944 512
WIRE -528 544 -528 512
WIRE -480 544 -528 544
WIRE -288 544 -288 512
WIRE -288 544 -336 544
WIRE 944 544 944 512
WIRE 1680 544 1680 464
WIRE 1760 544 1680 544
WIRE 1600 560 1600 416
WIRE -528 592 -528 544
WIRE -288 592 -288 544
WIRE 784 592 784 432
WIRE 832 592 832 464
WIRE 832 592 784 592
WIRE 912 592 832 592
WIRE 80 624 80 368
WIRE 1152 624 1152 464
WIRE 1152 624 1056 624
WIRE 1376 624 1376 416
WIRE 1376 624 1152 624
WIRE 560 656 384 656
WIRE 912 656 640 656
WIRE 992 720 992 704
WIRE 1024 720 992 720
WIRE 1600 720 1600 640
WIRE -528 752 -528 672
WIRE -400 752 -528 752
WIRE -288 752 -288 672
WIRE -288 752 -400 752
WIRE 80 768 80 704
WIRE 944 784 944 704
WIRE 1024 784 944 784
WIRE -400 816 -400 752
FLAG 112 208 0
FLAG -16 208 0
FLAG 32 48 V+
FLAG 160 48 V-
FLAG 1024 720 V+
FLAG 1024 512 V+
FLAG 1024 784 V-
FLAG 1024 336 V+
FLAG 1024 128 V+
FLAG 1024 400 V-
FLAG 80 768 0
FLAG 384 272 Vm
FLAG 384 656 Vp
FLAG 1760 480 V+
FLAG 1760 272 V+
FLAG 1760 544 V-
FLAG 1600 720 0
FLAG 2032 384 VINAout
FLAG -400 816 0
FLAG -480 544 Vp
FLAG -336 544 Vm
SYMBOL voltage -16 64 R0
WINDOW 123 0 0 Left 2
WINDOW 39 0 0 Left 2
SYMATTR InstName V1
SYMATTR Value 15
SYMBOL voltage 112 64 R0
WINDOW 123 0 0 Left 2
WINDOW 39 0 0 Left 2
SYMATTR InstName V2
SYMATTR Value -15
SYMBOL Opamps\\LTC2050 944 624 R0
SYMATTR InstName U2
SYMBOL Opamps\\LTC2050 944 240 R0
SYMATTR InstName U1
SYMBOL voltage 80 608 R0
WINDOW 123 0 0 Left 2
WINDOW 39 0 0 Left 2
SYMATTR InstName Vcommonmode
SYMATTR Value 1
SYMBOL res 1040 448 R90
WINDOW 0 0 56 VBottom 2
WINDOW 3 32 56 VTop 2
SYMATTR InstName R2
SYMATTR Value 10K
SYMBOL res 1024 48 R90
WINDOW 0 0 56 VBottom 2
WINDOW 3 32 56 VTop 2
SYMATTR InstName R3
SYMATTR Value 10K
SYMBOL res 768 336 R0
SYMATTR InstName R1
SYMATTR Value 20
SYMBOL Opamps\\LTC2050 1680 384 R0
SYMATTR InstName U3
SYMBOL res 1504 400 R90
WINDOW 0 0 56 VBottom 2
WINDOW 3 32 56 VTop 2
SYMATTR InstName R4
SYMATTR Value 10K
SYMBOL res 1584 336 R90
WINDOW 0 0 56 VBottom 2
WINDOW 3 32 56 VTop 2
SYMATTR InstName R5
SYMATTR Value 10K
SYMBOL res 1616 656 R180
WINDOW 0 36 76 Left 2
WINDOW 3 36 40 Left 2
SYMATTR InstName R6
SYMATTR Value 10K
SYMBOL res 1776 96 R90
WINDOW 0 0 56 VBottom 2
WINDOW 3 32 56 VTop 2
SYMATTR InstName R7
SYMATTR Value 10K
SYMBOL voltage 544 272 R270
WINDOW 0 32 56 VTop 2
WINDOW 3 -32 56 VBottom 2
WINDOW 123 0 0 Left 2
WINDOW 39 0 0 Left 2
SYMATTR InstName Vos1
SYMATTR Value 0
SYMBOL voltage 544 656 R270
WINDOW 0 32 56 VTop 2
WINDOW 3 -32 56 VBottom 2
WINDOW 123 0 0 Left 2
WINDOW 39 0 0 Left 2
SYMATTR InstName Vos2
SYMATTR Value 0
SYMBOL res -544 416 R0
SYMATTR InstName R8
SYMATTR Value 350
SYMBOL res -304 416 R0
SYMATTR InstName R9
SYMATTR Value 350.14
SYMBOL res -304 576 R0
SYMATTR InstName R10
SYMATTR Value 350
SYMBOL res -544 576 R0
SYMATTR InstName R11
SYMATTR Value 350
TEXT -48 848 Left 2 !.tran 1m
TEXT 1600 40 Left 2 ;LT5400 here
TEXT 1680 608 Left 2 ;U3 does NOT need to have super good offset
TEXT 648 856 Left 2 ;Both op amps contribute to total offset.
TEXT 648 920 Left 2 ;The three resistors affect gain accuracy and common mode rejection.
TEXT -664 328 Left 2 ;Create a small difference here.
