Version 4
SHEET 1 1600 1028
WIRE 704 -144 272 -144
WIRE -288 96 -288 32
WIRE -176 96 -176 32
WIRE 432 160 432 96
WIRE 464 160 432 160
WIRE 464 176 464 160
WIRE 272 208 272 -144
WIRE 416 208 272 208
WIRE -288 224 -288 176
WIRE -176 224 -176 176
WIRE 704 224 704 -144
WIRE 704 224 528 224
WIRE 800 224 704 224
WIRE 928 224 880 224
WIRE 1008 224 928 224
WIRE 1136 224 1008 224
WIRE 1184 224 1136 224
WIRE 416 240 112 240
WIRE 928 256 928 224
WIRE 1184 256 1184 224
WIRE 464 304 464 272
WIRE 112 336 112 240
WIRE 432 352 432 288
WIRE 928 368 928 320
WIRE 1184 368 1184 336
WIRE 112 464 112 416
WIRE 720 464 288 464
WIRE 1008 512 1008 224
WIRE 448 768 448 704
WIRE 480 768 448 768
WIRE 480 784 480 768
WIRE 288 816 288 464
WIRE 432 816 288 816
WIRE 720 832 720 464
WIRE 720 832 544 832
WIRE 816 832 720 832
WIRE 944 832 896 832
WIRE 1008 832 1008 576
WIRE 1008 832 944 832
WIRE 432 848 112 848
WIRE 944 864 944 832
WIRE 112 896 112 848
WIRE 480 912 480 880
WIRE 448 960 448 896
WIRE 944 976 944 928
FLAG -288 224 0
FLAG -176 224 0
FLAG -288 32 V+
FLAG -176 32 V-
FLAG 432 96 V+
FLAG 432 352 V-
FLAG 464 304 0
FLAG 112 464 0
FLAG 112 240 Vref
FLAG 928 368 0
FLAG 1184 368 0
FLAG 448 704 V+
FLAG 448 960 V-
FLAG 480 912 0
FLAG 112 896 0
FLAG 944 976 0
FLAG 1136 224 VOUT
SYMBOL Opamps\\LT6018 464 224 R0
SYMATTR InstName U1
SYMBOL voltage -288 80 R0
WINDOW 123 0 0 Left 2
WINDOW 39 0 0 Left 2
SYMATTR InstName V1
SYMATTR Value 15
SYMBOL voltage -176 80 R0
WINDOW 123 0 0 Left 2
WINDOW 39 0 0 Left 2
SYMATTR InstName V2
SYMATTR Value -15
SYMBOL res 896 208 R90
WINDOW 0 0 56 VBottom 2
WINDOW 3 32 56 VTop 2
SYMATTR InstName R1
SYMATTR Value 10
SYMBOL cap 912 256 R0
SYMATTR InstName C1
SYMATTR Value 3.3n
SYMBOL current 1184 256 R0
WINDOW 123 0 0 Left 2
WINDOW 39 0 0 Left 2
SYMATTR InstName I1
SYMATTR Value PULSE(0 2m 100u 1n 1n 1u 2u)
SYMBOL voltage 112 320 R0
WINDOW 123 0 0 Left 2
WINDOW 39 0 0 Left 2
SYMATTR InstName V3
SYMATTR Value 5
SYMBOL Opamps\\LT6018 480 832 R0
SYMATTR InstName U2
SYMBOL res 912 816 R90
WINDOW 0 0 56 VBottom 2
WINDOW 3 32 56 VTop 2
SYMATTR InstName R2
SYMATTR Value 10
SYMBOL cap 928 864 R0
SYMATTR InstName C2
SYMATTR Value 3.3n
SYMBOL cap 992 512 R0
SYMATTR InstName C3
SYMATTR Value 6.8n
TEXT -322 488 Left 2 !.tran 10m
