Version 4
SHEET 1 1120 680
WIRE 64 -64 -32 -64
WIRE -64 112 -256 112
WIRE 208 112 -64 112
WIRE 224 112 208 112
WIRE -256 144 -256 112
WIRE 208 160 208 112
WIRE 224 160 224 112
WIRE 64 176 64 -64
WIRE 176 176 64 176
WIRE 384 192 240 192
WIRE 416 192 384 192
WIRE -64 208 -64 192
WIRE 64 208 -64 208
WIRE 128 208 64 208
WIRE 176 208 128 208
WIRE -64 224 -64 208
WIRE 192 256 192 224
WIRE 208 256 208 224
WIRE 208 256 192 256
WIRE 224 256 224 224
WIRE 224 256 208 256
WIRE 224 288 224 256
WIRE 64 336 64 208
WIRE 288 336 64 336
WIRE 416 336 416 192
WIRE 416 336 368 336
WIRE 64 416 64 336
WIRE 288 416 64 416
WIRE 416 416 416 336
WIRE 416 416 352 416
FLAG -256 224 0
FLAG -64 304 0
FLAG -32 16 0
FLAG 224 288 0
FLAG 384 192 OUT
FLAG 128 272 0
SYMBOL Comparators\\LT1719 208 128 R0
SYMATTR InstName U1
SYMBOL voltage -256 128 R0
WINDOW 123 0 0 Left 2
WINDOW 39 0 0 Left 2
SYMATTR InstName V1
SYMATTR Value 3.3
SYMBOL res -80 96 R0
SYMATTR InstName R1
SYMATTR Value 2K
SYMBOL res -80 208 R0
SYMATTR InstName R2
SYMATTR Value 2K
SYMBOL voltage -32 -80 R0
WINDOW 123 0 0 Left 2
WINDOW 39 0 0 Left 2
SYMATTR InstName V2
SYMATTR Value PULSE(1.5 1.7 1u 1n 1n 1u 2u)
SYMBOL res 384 320 R90
WINDOW 0 0 56 VBottom 2
WINDOW 3 32 56 VTop 2
SYMATTR InstName Rf
SYMATTR Value 100K
SYMBOL cap 112 208 R0
SYMATTR InstName C1
SYMATTR Value 5p
SYMBOL cap 352 400 R90
WINDOW 0 0 32 VBottom 2
WINDOW 3 32 32 VTop 2
SYMATTR InstName Cf
SYMATTR Value 10p
TEXT 152 -96 Left 2 !.tran 100u
TEXT 336 64 Left 2 ;Feedback capacitor helps to give instant hysteresis.\nThe time constant for that to go away is actually R2 || R1 || Rf.\nTherefore the instant hysteresis from Cf is not available for very long!
