Version 4
SHEET 1 1068 824
WIRE 880 -224 768 -224
WIRE 992 -224 960 -224
WIRE -688 -112 -1024 -112
WIRE -496 -112 -688 -112
WIRE 848 -112 848 -144
WIRE 752 -80 528 -80
WIRE 816 -80 752 -80
WIRE 992 -80 992 -224
WIRE 992 -80 896 -80
WIRE 256 -48 128 -48
WIRE 320 -48 256 -48
WIRE 768 -48 768 -224
WIRE 768 -48 560 -48
WIRE 816 -48 768 -48
WIRE 992 -48 896 -48
WIRE 256 -32 256 -48
WIRE -688 0 -688 -112
WIRE -496 0 -496 -112
WIRE 320 0 320 -48
WIRE -1024 16 -1024 -112
WIRE 832 16 832 -16
WIRE 848 16 848 -16
WIRE 848 16 832 16
WIRE 864 16 864 -16
WIRE 864 16 848 16
WIRE 848 32 848 16
WIRE 128 48 128 -48
WIRE 752 80 752 -80
WIRE 880 80 752 80
WIRE 992 80 992 -48
WIRE 992 80 960 80
WIRE 320 96 320 80
WIRE 528 96 528 -80
WIRE 528 96 320 96
WIRE -688 112 -688 80
WIRE 320 112 320 96
WIRE -1024 144 -1024 96
WIRE -496 144 -496 80
WIRE -496 144 -576 144
WIRE -80 144 -496 144
WIRE 128 144 128 128
WIRE 128 144 -16 144
WIRE 256 144 128 144
WIRE -496 160 -496 144
WIRE -80 160 -80 144
WIRE -16 160 -16 144
WIRE 128 160 128 144
WIRE -688 208 -688 192
WIRE -608 208 -688 208
WIRE 320 208 320 192
WIRE 320 208 288 208
WIRE 256 224 256 144
WIRE 320 224 256 224
WIRE -576 240 -576 144
WIRE -576 240 -688 240
WIRE 320 240 320 224
WIRE -608 256 -608 208
WIRE -496 256 -496 240
WIRE -496 256 -608 256
WIRE -80 256 -496 256
WIRE 128 256 128 240
WIRE 128 256 -16 256
WIRE 288 256 288 208
WIRE 288 256 128 256
WIRE -688 272 -688 240
WIRE -80 272 -80 256
WIRE -16 272 -16 256
WIRE 128 272 128 256
WIRE -944 320 -1024 320
WIRE -496 320 -496 256
WIRE 880 320 880 304
WIRE 1008 320 1008 304
WIRE -1024 336 -1024 320
WIRE 320 336 320 320
WIRE 560 336 560 -48
WIRE 560 336 320 336
WIRE 320 352 320 336
WIRE -688 384 -688 352
WIRE 880 416 880 400
WIRE 1008 416 1008 400
WIRE 128 448 128 352
WIRE 256 448 128 448
WIRE 320 448 320 432
WIRE 320 448 256 448
WIRE -1024 480 -1024 416
WIRE 256 496 256 448
WIRE -944 544 -944 320
WIRE -688 544 -688 464
WIRE -688 544 -944 544
WIRE -496 544 -496 400
WIRE -496 544 -688 544
FLAG 880 416 0
FLAG 880 304 3Vcc
FLAG 848 32 0
FLAG 848 -144 3Vcc
FLAG 256 -32 Vmid
FLAG 256 496 Vmid
FLAG -1024 480 0
FLAG -1024 144 0
FLAG 1008 416 0
FLAG 1008 304 Vmid
SYMBOL res 112 32 R0
SYMATTR InstName R1c
SYMATTR Value 499
SYMBOL res 112 144 R0
SYMATTR InstName R0b
SYMATTR Value 140
SYMBOL res 112 256 R0
SYMATTR InstName R1d
SYMATTR Value 499
SYMBOL res -512 144 R0
SYMATTR InstName R0a
SYMATTR Value 140
SYMBOL res 304 -16 R0
SYMATTR InstName R2c
SYMATTR Value 2.55k
SYMBOL res 304 96 R0
SYMATTR InstName R3c
SYMATTR Value 124
SYMBOL res 304 224 R0
SYMATTR InstName R3d
SYMATTR Value 124
SYMBOL res 304 336 R0
SYMATTR InstName R2d
SYMATTR Value 2.55k
SYMBOL Comparators\\LT1712 848 -64 R0
SYMATTR InstName U1
SYMBOL voltage 880 304 R0
SYMATTR InstName V1
SYMATTR Value 3
SYMBOL res 976 -240 R90
WINDOW 0 0 56 VBottom 2
WINDOW 3 32 56 VTop 2
SYMATTR InstName R9
SYMATTR Value 750k
SYMBOL res 976 64 R90
WINDOW 0 0 56 VBottom 2
WINDOW 3 32 56 VTop 2
SYMATTR InstName R10
SYMATTR Value 750k
SYMBOL res -512 -16 R0
SYMATTR InstName R1a
SYMATTR Value 499
SYMBOL res -512 304 R0
SYMATTR InstName R1b
SYMATTR Value 499
SYMBOL res -704 -16 R0
SYMATTR InstName R2a
SYMATTR Value 2.55k
SYMBOL res -704 96 R0
SYMATTR InstName R3a
SYMATTR Value 124
SYMBOL res -704 256 R0
SYMATTR InstName R3b
SYMATTR Value 124
SYMBOL res -704 368 R0
SYMATTR InstName R2b
SYMATTR Value 2.55k
SYMBOL voltage -1024 0 M0
WINDOW 123 24 124 Left 2
WINDOW 39 0 0 Left 2
SYMATTR Value2 AC 3
SYMATTR InstName V5
SYMATTR Value PULSE(1.5 -1.5 10ns 10ns 10ns 500ns 1u)
SYMBOL voltage -1024 320 M0
WINDOW 123 24 124 Left 2
WINDOW 39 0 0 Left 2
SYMATTR Value2 AC 3
SYMATTR InstName V6
SYMATTR Value PULSE(-1.5 1.5 10ns 10ns 10ns 500ns 1u)
SYMBOL voltage 1008 304 R0
SYMATTR InstName V2
SYMATTR Value 1.5
TEXT 568 456 Left 2 !;.ac dec 100 1 10k
TEXT 648 392 Left 2 !.tran 1us
TEXT -336 160 Left 2 ;V-Thevenin here \nis  +/-293.5mV,\nDIFFERENTIALLY,\nunloaded.  (586mVpp)
TEXT -336 296 Left 2 ;V-Thevenin here \nis  +/-146.7mV,\nsingle-ended,\nunloaded.  (293mVpp)
TEXT -336 32 Left 2 ;V-Thevenin here \nis  +/-146.7mV,\nsingle-ended,\nunloaded. (293.5mVpp)
TEXT -824 -184 Left 3 ;TRANSMIT
TEXT 280 -176 Left 3 ;RECEIVE
