Version 4
SHEET 1 1392 916
WIRE -400 48 -400 32
WIRE -304 48 -304 32
WIRE 352 48 144 48
WIRE 544 48 432 48
WIRE 544 96 544 48
WIRE 736 96 544 96
WIRE 848 96 816 96
WIRE 896 96 848 96
WIRE 912 96 896 96
WIRE 848 144 848 96
WIRE -400 160 -400 128
WIRE -304 160 -304 128
WIRE -80 208 -128 208
WIRE 80 208 0 208
WIRE -512 224 -512 208
WIRE 80 240 80 208
WIRE 144 240 144 48
WIRE 208 240 208 224
WIRE 272 240 272 224
WIRE 336 240 336 224
WIRE 400 240 400 224
WIRE 464 240 464 224
WIRE 848 240 848 208
WIRE -512 304 -608 304
WIRE -608 320 -608 304
WIRE -128 320 -128 208
WIRE -128 320 -272 320
WIRE -512 336 -512 304
WIRE -272 368 -272 320
WIRE -608 432 -608 400
WIRE -272 480 -272 448
WIRE 272 544 272 528
WIRE 336 544 336 528
WIRE 400 544 400 528
WIRE 80 560 80 528
WIRE 208 560 208 528
WIRE 464 608 464 528
WIRE 544 608 544 96
WIRE 544 608 464 608
WIRE -128 624 -128 320
WIRE -64 624 -128 624
WIRE 144 624 144 528
WIRE 144 624 16 624
WIRE -496 656 -576 656
WIRE -352 656 -416 656
WIRE -576 688 -576 656
WIRE 144 704 144 624
WIRE 240 704 144 704
WIRE 464 704 464 608
WIRE 464 704 320 704
WIRE -576 800 -576 768
FLAG -304 160 0
FLAG -304 32 +V
FLAG -400 160 0
FLAG -400 32 -V
FLAG 400 544 +V
FLAG 464 224 -V
FLAG 208 560 2v5
FLAG -512 336 0
FLAG -512 208 2v5
FLAG 208 224 Vctrl
FLAG -272 480 0
FLAG 896 96 Out
FLAG -608 432 m2v5
FLAG 336 544 m2v5
FLAG 336 224 m2v5
FLAG -352 656 Vctrl
FLAG 80 560 0
FLAG -576 800 0
FLAG 848 240 0
SYMBOL voltage -304 32 R0
SYMATTR InstName V1
SYMATTR Value 15
SYMBOL voltage -400 32 R0
SYMATTR InstName V2
SYMATTR Value -15
SYMBOL res 336 720 M270
WINDOW 0 32 56 VTop 2
WINDOW 3 0 56 VBottom 2
SYMATTR InstName R1
SYMATTR Value 1.5k
SYMBOL voltage -512 208 R0
WINDOW 123 0 0 Left 2
WINDOW 39 0 0 Left 2
SYMATTR InstName V4
SYMATTR Value 2.5
SYMBOL res 32 640 M270
WINDOW 0 32 56 VTop 2
WINDOW 3 0 56 VBottom 2
SYMATTR InstName R6
SYMATTR Value 1.5k
SYMBOL res 16 224 M270
WINDOW 0 32 56 VTop 2
WINDOW 3 0 56 VBottom 2
SYMATTR InstName R8
SYMATTR Value 1
SYMBOL voltage -272 352 R0
WINDOW 123 0 0 Left 2
WINDOW 39 0 0 Left 2
WINDOW 3 -75 172 Left 2
SYMATTR Value SINE(0 1 500k)
SYMATTR InstName V5
SYMBOL res 448 32 R90
WINDOW 0 0 56 VBottom 2
WINDOW 3 32 56 VTop 2
SYMATTR InstName R10
SYMATTR Value 1.55k
SYMBOL Opamps\\LT1256 176 384 M90
SYMATTR InstName U1
SYMBOL voltage -608 304 R0
WINDOW 123 0 0 Left 2
WINDOW 39 0 0 Left 2
SYMATTR InstName V8
SYMATTR Value 2.5
SYMBOL voltage -576 672 R0
WINDOW 123 0 0 Left 2
WINDOW 39 0 0 Left 2
WINDOW 3 -75 172 Left 2
SYMATTR Value PWL(0 -2.5 100us 2.5 100.1us 0)
SYMATTR InstName V3
SYMBOL res 832 112 M270
WINDOW 0 32 56 VTop 2
WINDOW 3 0 56 VBottom 2
SYMATTR InstName R2
SYMATTR Value 1k
SYMBOL cap 832 144 R0
SYMATTR InstName C1
SYMATTR Value .1u
SYMBOL voltage -400 656 R90
WINDOW 0 -32 56 VBottom 2
WINDOW 3 35 -40 VTop 2
WINDOW 123 0 0 Left 2
WINDOW 39 0 0 Left 2
SYMATTR InstName V6
SYMATTR Value SINE(0 2.5 500k 100.5u 0 0)
TEXT -736 104 Left 2 !.tran 1000us
TEXT -368 616 Left 5 ;X
TEXT -264 280 Left 5 ;Y
TEXT 568 144 Left 5 ;X*Y
TEXT 920 160 Left 5 ;Average(X*Y)
