Version 4
SHEET 1 1156 2604
WIRE 352 1584 208 1584
WIRE 640 1584 432 1584
WIRE -112 1680 -240 1680
WIRE 0 1680 -48 1680
WIRE 224 1680 0 1680
WIRE 640 1680 640 1584
WIRE 640 1680 576 1680
WIRE 784 1680 640 1680
WIRE 0 1744 0 1680
WIRE 16 1744 0 1744
WIRE 224 1744 96 1744
WIRE 592 1744 576 1744
WIRE 784 1744 784 1680
WIRE 784 1744 672 1744
WIRE 0 1808 0 1744
WIRE 112 1808 0 1808
WIRE 208 1808 208 1584
WIRE 208 1808 192 1808
WIRE 224 1808 208 1808
WIRE 624 1808 576 1808
WIRE 688 1808 624 1808
WIRE 784 1808 784 1744
WIRE 784 1808 768 1808
WIRE 624 1840 624 1808
WIRE 992 1840 624 1840
WIRE 224 1872 -48 1872
WIRE 880 1872 576 1872
WIRE -48 1888 -48 1872
WIRE 880 1888 880 1872
WIRE 816 1920 672 1920
WIRE 608 1936 576 1936
WIRE 880 1984 880 1968
WIRE 112 2000 0 2000
WIRE 208 2000 192 2000
WIRE 224 2000 208 2000
WIRE 672 2000 672 1920
WIRE 672 2000 576 2000
WIRE 688 2000 672 2000
WIRE 784 2000 768 2000
WIRE 0 2064 0 2000
WIRE 16 2064 0 2064
WIRE 224 2064 96 2064
WIRE 592 2064 576 2064
WIRE 784 2064 784 2000
WIRE 784 2064 672 2064
WIRE 0 2128 0 2064
WIRE 224 2128 0 2128
WIRE 640 2128 576 2128
WIRE 784 2128 784 2064
WIRE 784 2128 640 2128
WIRE -240 2160 -240 1680
WIRE 208 2224 208 2000
WIRE 352 2224 208 2224
WIRE 640 2224 640 2128
WIRE 640 2224 432 2224
WIRE 0 2256 0 2128
WIRE -240 2272 -240 2240
WIRE 0 2416 0 2320
WIRE 992 2416 992 1840
WIRE 992 2416 0 2416
WIRE 816 2560 816 1920
WIRE 960 2560 816 2560
WIRE 1152 2560 960 2560
FLAG -48 1968 0
FLAG -240 2272 0
FLAG 880 1984 0
FLAG 608 1936 0
FLAG 960 2560 OUT
SYMBOL VOLTAGE -48 1872 R0
SYMATTR InstName V2
SYMATTR Value 5
SYMBOL RES 688 1728 R90
WINDOW 0 0 56 VBottom 2
WINDOW 3 32 56 VTop 2
SYMATTR InstName RQ2
SYMATTR Value 47.86K
SYMBOL res 784 1792 R90
WINDOW 0 0 56 VBottom 2
WINDOW 3 32 56 VTop 2
SYMATTR InstName R22
SYMATTR Value 15.15K
SYMBOL res 112 1728 R90
WINDOW 0 0 56 VBottom 2
WINDOW 3 32 56 VTop 2
SYMATTR InstName RQ1
SYMATTR Value 51.56K
SYMBOL res 208 1792 R90
WINDOW 0 0 56 VBottom 2
WINDOW 3 32 56 VTop 2
SYMATTR InstName R21
SYMATTR Value 16.56K
SYMBOL res 448 1568 R90
WINDOW 0 0 56 VBottom 2
WINDOW 3 32 56 VTop 2
SYMATTR InstName RIN2
SYMATTR Value 65.2K
SYMBOL res 208 1984 R90
WINDOW 0 0 56 VBottom 2
WINDOW 3 32 56 VTop 2
SYMATTR InstName R23
SYMATTR Value 16.56K
SYMBOL res 112 2048 R90
WINDOW 0 0 56 VBottom 2
WINDOW 3 32 56 VTop 2
SYMATTR InstName RQ3
SYMATTR Value 51.56K
SYMBOL res 784 1984 R90
WINDOW 0 0 56 VBottom 2
WINDOW 3 32 56 VTop 2
SYMATTR InstName R24
SYMATTR Value 15.15K
SYMBOL res 688 2048 R90
WINDOW 0 0 56 VBottom 2
WINDOW 3 32 56 VTop 2
SYMATTR InstName RQ4
SYMATTR Value 47.86K
SYMBOL voltage -240 2144 R0
SYMATTR InstName V3
SYMATTR Value ac 1
SYMBOL FILTERPRODUCTS\\LTC1562 400 1904 R0
SYMATTR InstName U1
SYMBOL VOLTAGE 880 1872 R0
SYMATTR InstName V1
SYMATTR Value -5
SYMBOL cap -48 1664 R90
WINDOW 0 0 32 VBottom 2
WINDOW 3 32 32 VTop 2
SYMATTR InstName C1
SYMATTR Value 31.1p
SYMBOL cap 16 2320 R180
WINDOW 0 24 56 Left 2
WINDOW 3 24 8 Left 2
SYMATTR InstName C2
SYMATTR Value 31.1p
SYMBOL res 448 2208 R90
WINDOW 0 0 56 VBottom 2
WINDOW 3 32 56 VTop 2
SYMATTR InstName RIN4
SYMATTR Value 65.2K
TEXT 392 2312 Left 2 !.ac dec 100 1 100Meg
