Version 4
SHEET 1 2484 2048
WIRE 576 -624 16 -624
WIRE 704 -624 656 -624
WIRE 576 -528 64 -528
WIRE 704 -528 704 -624
WIRE 704 -528 656 -528
WIRE 96 -416 -192 -416
WIRE 704 -416 704 -528
WIRE 704 -416 448 -416
WIRE -528 -352 -864 -352
WIRE -480 -352 -528 -352
WIRE -336 -352 -400 -352
WIRE -304 -352 -336 -352
WIRE -192 -352 -192 -416
WIRE -192 -352 -224 -352
WIRE -96 -352 -192 -352
WIRE 64 -352 64 -528
WIRE 64 -352 -16 -352
WIRE 96 -352 64 -352
WIRE 480 -352 448 -352
WIRE 704 -352 704 -416
WIRE 704 -352 560 -352
WIRE -336 -336 -336 -352
WIRE -864 -320 -864 -352
WIRE -192 -288 -192 -352
WIRE -144 -288 -192 -288
WIRE 96 -288 -64 -288
WIRE 576 -288 448 -288
WIRE 704 -288 704 -352
WIRE 704 -288 656 -288
WIRE -336 -256 -336 -272
WIRE 16 -224 16 -624
WIRE 96 -224 16 -224
WIRE 512 -224 448 -224
WIRE 752 -224 512 -224
WIRE -800 -160 -848 -160
WIRE -704 -160 -752 -160
WIRE 16 -160 16 -224
WIRE 96 -160 16 -160
WIRE 512 -160 512 -224
WIRE 512 -160 448 -160
WIRE -848 -128 -848 -160
WIRE -752 -128 -752 -160
WIRE 496 -96 448 -96
WIRE 512 -96 496 -96
WIRE -848 -32 -848 -48
WIRE -752 -32 -752 -48
WIRE 32 -32 -48 -32
WIRE 96 -32 80 -32
WIRE 496 -32 496 -96
WIRE 592 -32 496 -32
WIRE 32 32 32 -32
WIRE 32 32 16 32
WIRE 96 32 32 32
WIRE 800 32 448 32
WIRE 96 160 32 160
WIRE 512 160 448 160
WIRE 32 224 32 160
WIRE 96 224 32 224
WIRE 512 224 512 160
WIRE 512 224 448 224
WIRE 864 224 512 224
WIRE -160 288 -192 288
WIRE 96 288 -80 288
WIRE 560 288 448 288
WIRE 704 288 640 288
WIRE -192 352 -192 288
WIRE -64 352 -192 352
WIRE 64 352 16 352
WIRE 96 352 64 352
WIRE 480 352 448 352
WIRE 704 352 704 288
WIRE 704 352 560 352
WIRE -192 416 -192 352
WIRE 96 416 -192 416
WIRE 704 416 704 352
WIRE 704 416 448 416
WIRE -192 528 -192 416
WIRE -144 528 -192 528
WIRE 752 528 752 -224
WIRE 752 528 -64 528
WIRE 64 592 64 352
WIRE 592 592 64 592
WIRE 704 592 704 416
WIRE 704 592 672 592
WIRE 32 688 32 224
WIRE 592 688 32 688
WIRE 704 688 704 592
WIRE 704 688 672 688
FLAG -848 -32 0
FLAG -752 -32 0
FLAG -864 -240 0
FLAG -528 -352 IN
FLAG 80 -32 0
FLAG -800 -160 V+
FLAG -48 -32 V+
FLAG -704 -160 V-
FLAG 592 -32 V-
FLAG -336 -256 0
FLAG -48 32 0
FLAG 576 -96 0
FLAG 864 224 out
SYMBOL voltage -848 -144 R0
WINDOW 0 43 39 Bottom 2
WINDOW 3 44 44 Top 2
WINDOW 123 0 0 Left 2
WINDOW 39 0 0 Left 2
SYMATTR InstName V3
SYMATTR Value 5
SYMBOL voltage -752 -32 R180
WINDOW 0 -55 91 Bottom 2
WINDOW 3 -51 29 Top 2
WINDOW 123 74 56 VTop 2
WINDOW 39 53 56 VTop 2
SYMATTR InstName V2
SYMATTR Value 5
SYMBOL res -384 -368 R90
WINDOW 0 0 56 VBottom 2
WINDOW 3 32 56 VTop 2
SYMATTR InstName Ri1
SYMATTR Value 4.99k
SYMBOL res 0 -368 R90
WINDOW 0 0 63 VBottom 2
WINDOW 3 31 50 VTop 2
SYMATTR InstName R21
SYMATTR Value 10k
SYMBOL res -48 -304 R90
WINDOW 0 2 64 VBottom 2
WINDOW 3 30 49 VTop 2
SYMATTR InstName R31
SYMATTR Value 5.49k
SYMBOL res 576 -368 R90
WINDOW 0 0 64 VBottom 2
WINDOW 3 30 49 VTop 2
SYMATTR InstName R22
SYMATTR Value 10k
SYMBOL res 672 -304 R90
WINDOW 0 2 62 VBottom 2
WINDOW 3 31 44 VTop 2
SYMATTR InstName R32
SYMATTR Value 11k
SYMBOL res 672 -544 R90
WINDOW 0 6 60 VBottom 2
WINDOW 3 32 56 VTop 2
SYMATTR InstName RH1
SYMATTR Value 51.1k
SYMBOL res -48 512 R90
WINDOW 0 2 61 VBottom 2
WINDOW 3 29 52 VTop 2
SYMATTR InstName RL2
SYMATTR Value 15k
SYMBOL res -64 272 R90
WINDOW 0 1 59 VBottom 2
WINDOW 3 31 39 VTop 2
SYMATTR InstName R33
SYMATTR Value 34k
SYMBOL res 32 336 R90
WINDOW 0 2 62 VBottom 2
WINDOW 3 28 47 VTop 2
SYMATTR InstName R23
SYMATTR Value 10k
SYMBOL res 544 272 M90
WINDOW 0 3 70 VBottom 2
WINDOW 3 34 52 VTop 2
SYMATTR InstName R34
SYMATTR Value 5.49k
SYMBOL res 464 336 M90
WINDOW 0 1 63 VBottom 2
WINDOW 3 31 47 VTop 2
SYMATTR InstName R24
SYMATTR Value 10k
SYMBOL res 576 576 M90
WINDOW 0 0 56 VBottom 2
WINDOW 3 32 56 VTop 2
SYMATTR InstName RH3
SYMATTR Value 51.1k
SYMBOL voltage -864 -336 R0
WINDOW 123 43 58 Left 2
WINDOW 39 0 0 Left 2
WINDOW 0 28 26 Left 2
WINDOW 3 37 92 Left 2
SYMATTR Value2 AC 1
SYMATTR InstName V1
SYMATTR Value ""
SYMBOL res -208 -368 R90
WINDOW 0 0 56 VBottom 2
WINDOW 3 32 56 VTop 2
SYMATTR InstName Ri2
SYMATTR Value 4.99k
SYMBOL cap -352 -336 R0
WINDOW 0 -43 34 Left 2
WINDOW 3 -42 56 Left 2
SYMATTR InstName Ci1
SYMATTR Value 1n
SYMBOL FilterProducts\\LTC1068-200 272 -160 R0
WINDOW 3 588 189 Center 2
SYMATTR Value Fclk={CLK}
SYMATTR InstName U1
SYMBOL cap 16 16 R90
WINDOW 0 0 32 Invisible 2
WINDOW 3 33 31 VTop 2
SYMATTR InstName Cd1
SYMATTR Value 1µ
SYMBOL cap 576 -112 R90
WINDOW 0 0 32 Invisible 2
WINDOW 3 32 32 VTop 2
SYMATTR InstName Cd2
SYMATTR Value 1µ
SYMBOL res 672 -640 R90
WINDOW 0 0 61 VBottom 2
WINDOW 3 32 56 VTop 2
SYMATTR InstName RL1
SYMATTR Value 15k
SYMBOL res 576 672 M90
WINDOW 0 0 56 VBottom 2
WINDOW 3 29 48 VTop 2
SYMATTR InstName RL3
SYMATTR Value 6.49k
TEXT -864 48 Left 2 !.ac oct 500 10 100k
TEXT -552 -176 Left 2 !.step param CLK LIST 100k  500k 1meg  2meg
TEXT -552 -632 Left 3 ;LTC1068-200 Clock Tunable LPF\n500Hz - 10kHz\nFclk 100kHz - 2MHz
